1FAP_ligand0.pdb
 OpenBabel06042612053D

144147  0  0  1  0  0  0  0  0999 V2000
   -6.8160   26.0140   40.3650 C   0  0  0  0  0  0  0  0  0  0  0  0
   -7.7150   26.7390   39.5040 O   0  0  0  0  0  0  0  0  0  0  0  0
   -5.6590   25.8630   39.9530 O   0  0  0  0  0  0  0  0  0  0  0  0
   -7.2340   25.4720   41.7420 C   0  0  2  0  0  0  0  0  0  0  0  0
   -6.7480   24.0380   41.9630 C   0  0  0  0  0  0  0  0  0  0  0  0
   -7.5310   22.9680   41.2040 C   0  0  0  0  0  0  0  0  0  0  0  0
   -9.0270   23.0850   41.4300 C   0  0  0  0  0  0  0  0  0  0  0  0
   -9.4920   24.4850   41.1390 C   0  0  0  0  0  0  0  0  0  0  0  0
   -8.6850   25.3890   41.9850 N   0  0  0  0  0  0  0  0  0  0  0  0
   -9.2870   26.2230   42.8520 C   0  0  0  0  0  0  0  0  0  0  0  0
   -8.6530   27.0660   43.4840 O   0  0  0  0  0  0  0  0  0  0  0  0
  -10.6450   26.3090   43.1200 C   0  0  0  0  0  0  0  0  0  0  0  0
  -11.0260   25.6070   44.0550 O   0  0  0  0  0  0  0  0  0  0  0  0
  -11.6470   27.1890   42.3610 C   0  0  1  0  0  0  0  0  0  0  0  0
  -11.7490   26.6750   41.0290 O   0  0  0  0  0  0  0  0  0  0  0  0
  -12.8150   27.1950   43.2060 O   0  0  0  0  0  0  0  0  0  0  0  0
  -11.1020   28.6230   42.1770 C   0  0  1  0  0  0  0  0  0  0  0  0
  -12.1020   29.4530   41.3620 C   0  0  0  0  0  0  0  0  0  0  0  0
  -12.6610   28.7550   40.1170 C   0  0  0  0  0  0  0  0  0  0  0  0
  -12.7440   27.2250   40.1970 C   0  0  1  0  0  0  0  0  0  0  0  0
  -12.4760   26.5580   38.8440 C   0  0  0  0  0  0  0  0  0  0  0  0
  -13.4910   26.6880   37.7000 C   0  0  2  0  0  0  0  0  0  0  0  0
  -14.7640   26.2880   38.0700 O   0  0  0  0  0  0  0  0  0  0  0  0
  -13.0200   25.7940   36.5530 C   0  0  0  0  0  0  0  0  0  0  0  0
  -12.7020   26.3440   35.4000 C   0  0  0  0  0  0  0  0  0  0  0  0
  -12.1830   25.6940   34.1650 C   0  0  0  0  0  0  0  0  0  0  0  0
  -12.2640   26.3510   33.0030 C   0  0  0  0  0  0  0  0  0  0  0  0
  -11.7190   25.8290   31.7600 C   0  0  0  0  0  0  0  0  0  0  0  0
  -10.9670   26.4720   30.8900 C   0  0  0  0  0  0  0  0  0  0  0  0
  -10.5270   25.6960   29.6710 C   0  0  2  0  0  0  0  0  0  0  0  0
   -9.0090   25.7600   29.5460 C   0  0  0  0  0  0  0  0  0  0  0  0
   -8.2170   25.3540   30.7830 C   0  0  2  0  0  0  0  0  0  0  0  0
   -6.8530   26.0230   30.7510 C   0  0  0  0  0  0  0  0  0  0  0  0
   -5.9130   25.4750   30.1850 O   0  0  0  0  0  0  0  0  0  0  0  0
   -6.6840   27.4140   31.3560 C   0  0  2  0  0  0  0  0  0  0  0  0
   -5.5140   27.8840   30.7890 O   0  0  0  0  0  0  0  0  0  0  0  0
   -6.4260   27.3350   32.8580 C   0  0  2  0  0  0  0  0  0  0  0  0
   -5.3940   26.3690   33.0970 O   0  0  0  0  0  0  0  0  0  0  0  0
   -7.6570   26.9730   33.7030 C   0  0  0  0  0  0  0  0  0  0  0  0
   -7.8140   25.8040   34.2810 C   0  0  0  0  0  0  0  0  0  0  0  0
   -8.9140   25.3530   35.1710 C   0  0  2  0  0  0  0  0  0  0  0  0
   -8.5600   25.5570   36.6440 C   0  0  0  0  0  0  0  0  0  0  0  0
   -8.2350   24.5910   37.3340 O   0  0  0  0  0  0  0  0  0  0  0  0
   -8.6390   26.9610   37.2620 C   0  0  0  0  0  0  0  0  0  0  0  0
   -7.4550   27.2730   38.2050 C   0  0  1  0  0  0  0  0  0  0  0  0
   -7.3530   28.8080   38.5120 C   0  0  1  0  0  0  0  0  0  0  0  0
   -6.6180   29.5420   37.3930 C   0  0  0  0  0  0  0  0  0  0  0  0
   -5.2420   29.0570   36.9260 C   0  0  1  0  0  0  0  0  0  0  0  0
   -4.8390   29.8360   35.6670 C   0  0  0  0  0  0  0  0  0  0  0  0
   -3.4880   29.5080   35.0150 C   0  0  1  0  0  0  0  0  0  0  0  0
   -3.1170   30.5270   34.1260 O   0  0  0  0  0  0  0  0  0  0  0  0
   -2.3540   29.4910   36.0720 C   0  0  2  0  0  0  0  0  0  0  0  0
   -1.1670   28.9200   35.5070 O   0  0  0  0  0  0  0  0  0  0  0  0
   -2.7660   28.6820   37.3090 C   0  0  0  0  0  0  0  0  0  0  0  0
   -4.0780   29.1300   37.9140 C   0  0  0  0  0  0  0  0  0  0  0  0
  -10.8560   29.2870   43.5270 C   0  0  0  0  0  0  0  0  0  0  0  0
  -12.8820   24.3040   36.8170 C   0  0  0  0  0  0  0  0  0  0  0  0
  -11.1660   26.3030   28.4590 C   0  0  0  0  0  0  0  0  0  0  0  0
   -8.0660   23.8360   30.8250 C   0  0  0  0  0  0  0  0  0  0  0  0
   -8.6630   28.0830   33.8060 C   0  0  0  0  0  0  0  0  0  0  0  0
   -9.1090   23.8700   34.8640 C   0  0  0  0  0  0  0  0  0  0  0  0
   -8.7360   29.4250   38.6570 C   0  0  0  0  0  0  0  0  0  0  0  0
  -15.8190   26.9460   37.4570 C   0  0  0  0  0  0  0  0  0  0  0  0
   -5.7110   28.9190   29.9030 C   0  0  0  0  0  0  0  0  0  0  0  0
   -4.0020   31.0140   33.1400 C   0  0  0  0  0  0  0  0  0  0  0  0
   -6.7210   26.0850   42.4840 H   0  0  0  0  0  0  0  0  0  0  0  0
   -6.8450   23.8310   43.0280 H   0  0  0  0  0  0  0  0  0  0  0  0
   -5.6840   23.9440   41.7430 H   0  0  0  0  0  0  0  0  0  0  0  0
   -7.1870   21.9730   41.4650 H   0  0  0  0  0  0  0  0  0  0  0  0
   -7.3320   23.0730   40.1380 H   0  0  0  0  0  0  0  0  0  0  0  0
   -9.2640   22.8230   42.4630 H   0  0  0  0  0  0  0  0  0  0  0  0
   -9.5610   22.3720   40.8020 H   0  0  0  0  0  0  0  0  0  0  0  0
  -10.5680   24.5100   41.3000 H   0  0  0  0  0  0  0  0  0  0  0  0
   -9.3470   24.7220   40.0850 H   0  0  0  0  0  0  0  0  0  0  0  0
  -13.0870   26.2890   43.3110 H   0  0  0  0  0  0  0  0  0  0  0  0
  -10.1720   28.5760   41.6120 H   0  0  0  0  0  0  0  0  0  0  0  0
  -11.6730   30.4190   41.0930 H   0  0  0  0  0  0  0  0  0  0  0  0
  -12.9610   29.6730   41.9870 H   0  0  0  0  0  0  0  0  0  0  0  0
  -11.9710   29.0040   39.3110 H   0  0  0  0  0  0  0  0  0  0  0  0
  -13.6190   29.1820   39.8200 H   0  0  0  0  0  0  0  0  0  0  0  0
  -13.7170   26.9240   40.5870 H   0  0  0  0  0  0  0  0  0  0  0  0
  -12.3620   25.4990   39.0730 H   0  0  0  0  0  0  0  0  0  0  0  0
  -11.5030   26.8790   38.4840 H   0  0  0  0  0  0  0  0  0  0  0  0
  -13.5060   27.7380   37.3980 H   0  0  0  0  0  0  0  0  0  0  0  0
  -12.8260   27.4150   35.3310 H   0  0  0  0  0  0  0  0  0  0  0  0
  -11.7320   24.7140   34.2020 H   0  0  0  0  0  0  0  0  0  0  0  0
  -12.7030   27.3370   32.9900 H   0  0  0  0  0  0  0  0  0  0  0  0
  -12.2360   25.0160   31.3540 H   0  0  0  0  0  0  0  0  0  0  0  0
  -10.5230   27.4290   31.1050 H   0  0  0  0  0  0  0  0  0  0  0  0
  -10.8260   24.6480   29.7330 H   0  0  0  0  0  0  0  0  0  0  0  0
   -8.7530   26.7870   29.2750 H   0  0  0  0  0  0  0  0  0  0  0  0
   -8.6890   25.1620   28.6910 H   0  0  0  0  0  0  0  0  0  0  0  0
   -8.7250   25.6850   31.6850 H   0  0  0  0  0  0  0  0  0  0  0  0
   -7.5430   28.0370   31.1390 H   0  0  0  0  0  0  0  0  0  0  0  0
   -6.0520   28.2970   33.2060 H   0  0  0  0  0  0  0  0  0  0  0  0
   -5.2640   26.2820   34.0310 H   0  0  0  0  0  0  0  0  0  0  0  0
   -7.0480   25.0520   34.1570 H   0  0  0  0  0  0  0  0  0  0  0  0
   -9.8260   25.8990   34.9640 H   0  0  0  0  0  0  0  0  0  0  0  0
   -9.5860   27.0670   37.7810 H   0  0  0  0  0  0  0  0  0  0  0  0
   -8.6440   27.6730   36.4400 H   0  0  0  0  0  0  0  0  0  0  0  0
   -6.5240   26.8570   37.8250 H   0  0  0  0  0  0  0  0  0  0  0  0
   -6.7660   28.9530   39.4160 H   0  0  0  0  0  0  0  0  0  0  0  0
   -6.5350   30.5950   37.6690 H   0  0  0  0  0  0  0  0  0  0  0  0
   -7.2710   29.5190   36.5210 H   0  0  0  0  0  0  0  0  0  0  0  0
   -5.3320   28.0200   36.6060 H   0  0  0  0  0  0  0  0  0  0  0  0
   -4.8290   30.8950   35.9320 H   0  0  0  0  0  0  0  0  0  0  0  0
   -5.6270   29.7320   34.9220 H   0  0  0  0  0  0  0  0  0  0  0  0
   -3.5540   28.5500   34.4960 H   0  0  0  0  0  0  0  0  0  0  0  0
   -2.1300   30.5110   36.3870 H   0  0  0  0  0  0  0  0  0  0  0  0
   -1.3900   28.0870   35.1050 H   0  0  0  0  0  0  0  0  0  0  0  0
   -1.9780   28.7260   38.0610 H   0  0  0  0  0  0  0  0  0  0  0  0
   -2.8590   27.6370   37.0170 H   0  0  0  0  0  0  0  0  0  0  0  0
   -4.3040   28.5050   38.7780 H   0  0  0  0  0  0  0  0  0  0  0  0
   -3.9770   30.1480   38.2920 H   0  0  0  0  0  0  0  0  0  0  0  0
  -10.6070   30.3390   43.3820 H   0  0  0  0  0  0  0  0  0  0  0  0
  -11.7200   29.2570   44.1770 H   0  0  0  0  0  0  0  0  0  0  0  0
  -10.0360   28.8740   44.1030 H   0  0  0  0  0  0  0  0  0  0  0  0
  -12.8580   23.7210   35.8970 H   0  0  0  0  0  0  0  0  0  0  0  0
  -11.9630   24.0980   37.3650 H   0  0  0  0  0  0  0  0  0  0  0  0
  -13.7250   23.9410   37.4050 H   0  0  0  0  0  0  0  0  0  0  0  0
  -10.6890   25.9650   27.5450 H   0  0  0  0  0  0  0  0  0  0  0  0
  -12.2280   26.0600   28.4070 H   0  0  0  0  0  0  0  0  0  0  0  0
  -11.0730   27.3860   28.4760 H   0  0  0  0  0  0  0  0  0  0  0  0
   -7.6110   23.5070   31.7600 H   0  0  0  0  0  0  0  0  0  0  0  0
   -9.0390   23.3610   30.7460 H   0  0  0  0  0  0  0  0  0  0  0  0
   -7.4640   23.4480   30.0020 H   0  0  0  0  0  0  0  0  0  0  0  0
   -9.5450   27.8440   34.3950 H   0  0  0  0  0  0  0  0  0  0  0  0
   -8.1980   28.9600   34.2560 H   0  0  0  0  0  0  0  0  0  0  0  0
   -9.0150   28.3680   32.8160 H   0  0  0  0  0  0  0  0  0  0  0  0
   -9.9250   23.4500   35.4520 H   0  0  0  0  0  0  0  0  0  0  0  0
   -9.3690   23.7240   33.8150 H   0  0  0  0  0  0  0  0  0  0  0  0
   -8.2170   23.2730   35.0630 H   0  0  0  0  0  0  0  0  0  0  0  0
   -8.6620   30.4800   38.9220 H   0  0  0  0  0  0  0  0  0  0  0  0
   -9.3250   29.3410   37.7520 H   0  0  0  0  0  0  0  0  0  0  0  0
   -9.2980   28.9390   39.4540 H   0  0  0  0  0  0  0  0  0  0  0  0
  -16.7570   26.5030   37.7900 H   0  0  0  0  0  0  0  0  0  0  0  0
  -15.8290   28.0070   37.7090 H   0  0  0  0  0  0  0  0  0  0  0  0
  -15.7580   26.8400   36.3760 H   0  0  0  0  0  0  0  0  0  0  0  0
   -4.7550   29.2230   29.4760 H   0  0  0  0  0  0  0  0  0  0  0  0
   -6.3670   28.6250   29.0820 H   0  0  0  0  0  0  0  0  0  0  0  0
   -6.1440   29.7850   30.4050 H   0  0  0  0  0  0  0  0  0  0  0  0
   -3.4760   31.7100   32.4870 H   0  0  0  0  0  0  0  0  0  0  0  0
   -4.3830   30.1970   32.5260 H   0  0  0  0  0  0  0  0  0  0  0  0
   -4.8470   31.5470   33.5760 H   0  0  0  0  0  0  0  0  0  0  0  0
  1  2  1  0  0  0  0
  1  3  2  0  0  0  0
  1  4  1  0  0  0  0
  2 45  1  0  0  0  0
  4  5  1  0  0  0  0
  4  9  1  0  0  0  0
  4 66  1  1  0  0  0
  5  6  1  0  0  0  0
  5 67  1  0  0  0  0
  5 68  1  0  0  0  0
  6  7  1  0  0  0  0
  6 69  1  0  0  0  0
  6 70  1  0  0  0  0
  7  8  1  0  0  0  0
  7 71  1  0  0  0  0
  7 72  1  0  0  0  0
  8  9  1  0  0  0  0
  8 73  1  0  0  0  0
  8 74  1  0  0  0  0
  9 10  1  0  0  0  0
 10 11  2  0  0  0  0
 10 12  1  0  0  0  0
 12 13  2  0  0  0  0
 12 14  1  0  0  0  0
 14 15  1  0  0  0  0
 14 16  1  1  0  0  0
 14 17  1  0  0  0  0
 15 20  1  0  0  0  0
 16 75  1  0  0  0  0
 17 18  1  0  0  0  0
 17 56  1  0  0  0  0
 17 76  1  6  0  0  0
 18 19  1  0  0  0  0
 18 77  1  0  0  0  0
 18 78  1  0  0  0  0
 19 20  1  0  0  0  0
 19 79  1  0  0  0  0
 19 80  1  0  0  0  0
 20 21  1  0  0  0  0
 20 81  1  1  0  0  0
 21 22  1  0  0  0  0
 21 82  1  0  0  0  0
 21 83  1  0  0  0  0
 22 23  1  0  0  0  0
 22 24  1  0  0  0  0
 22 84  1  6  0  0  0
 23 63  1  0  0  0  0
 24 25  2  0  0  0  0
 24 57  1  0  0  0  0
 25 26  1  0  0  0  0
 25 85  1  0  0  0  0
 26 27  2  0  0  0  0
 26 86  1  0  0  0  0
 27 28  1  0  0  0  0
 27 87  1  0  0  0  0
 28 29  2  0  0  0  0
 28 88  1  0  0  0  0
 29 30  1  0  0  0  0
 29 89  1  0  0  0  0
 30 31  1  0  0  0  0
 30 58  1  0  0  0  0
 30 90  1  1  0  0  0
 31 32  1  0  0  0  0
 31 91  1  0  0  0  0
 31 92  1  0  0  0  0
 32 33  1  0  0  0  0
 32 59  1  0  0  0  0
 32 93  1  1  0  0  0
 33 34  2  0  0  0  0
 33 35  1  0  0  0  0
 35 36  1  0  0  0  0
 35 37  1  0  0  0  0
 35 94  1  6  0  0  0
 36 64  1  0  0  0  0
 37 38  1  0  0  0  0
 37 39  1  0  0  0  0
 37 95  1  1  0  0  0
 38 96  1  0  0  0  0
 39 40  2  0  0  0  0
 39 60  1  0  0  0  0
 40 41  1  0  0  0  0
 40 97  1  0  0  0  0
 41 42  1  0  0  0  0
 41 61  1  0  0  0  0
 41 98  1  6  0  0  0
 42 43  2  0  0  0  0
 42 44  1  0  0  0  0
 44 45  1  0  0  0  0
 44 99  1  0  0  0  0
 44100  1  0  0  0  0
 45 46  1  0  0  0  0
 45101  1  6  0  0  0
 46 47  1  0  0  0  0
 46 62  1  0  0  0  0
 46102  1  1  0  0  0
 47 48  1  0  0  0  0
 47103  1  0  0  0  0
 47104  1  0  0  0  0
 48 49  1  0  0  0  0
 48 55  1  0  0  0  0
 48105  1  6  0  0  0
 49 50  1  0  0  0  0
 49106  1  0  0  0  0
 49107  1  0  0  0  0
 50 51  1  0  0  0  0
 50 52  1  0  0  0  0
 50108  1  6  0  0  0
 51 65  1  0  0  0  0
 52 53  1  0  0  0  0
 52 54  1  0  0  0  0
 52109  1  1  0  0  0
 53110  1  0  0  0  0
 54 55  1  0  0  0  0
 54111  1  0  0  0  0
 54112  1  0  0  0  0
 55113  1  0  0  0  0
 55114  1  0  0  0  0
 56115  1  0  0  0  0
 56116  1  0  0  0  0
 56117  1  0  0  0  0
 57118  1  0  0  0  0
 57119  1  0  0  0  0
 57120  1  0  0  0  0
 58121  1  0  0  0  0
 58122  1  0  0  0  0
 58123  1  0  0  0  0
 59124  1  0  0  0  0
 59125  1  0  0  0  0
 59126  1  0  0  0  0
 60127  1  0  0  0  0
 60128  1  0  0  0  0
 60129  1  0  0  0  0
 61130  1  0  0  0  0
 61131  1  0  0  0  0
 61132  1  0  0  0  0
 62133  1  0  0  0  0
 62134  1  0  0  0  0
 62135  1  0  0  0  0
 63136  1  0  0  0  0
 63137  1  0  0  0  0
 63138  1  0  0  0  0
 64139  1  0  0  0  0
 64140  1  0  0  0  0
 64141  1  0  0  0  0
 65142  1  0  0  0  0
 65143  1  0  0  0  0
 65144  1  0  0  0  0
M  END
>  <COMPND>
    title: molecule 1

$$$$
1KKQ_ligand0.pdb
 OpenBabel06042612053D

 82 85  0  0  1  0  0  0  0  0999 V2000
   73.3010   29.3380   26.3950 N   0  3  0  0  0  0  0  0  0  0  0  0
   72.7480   29.0630   27.7190 C   0  0  1  0  0  0  0  0  0  0  0  0
   73.8590   28.9180   28.7580 C   0  0  0  0  0  0  0  0  0  0  0  0
   75.1810   28.3010   28.3640 C   0  0  0  0  0  0  0  0  0  0  0  0
   76.1160   29.0330   27.7400 C   0  0  0  0  0  0  0  0  0  0  0  0
   75.4560   27.0130   28.6190 C   0  0  0  0  0  0  0  0  0  0  0  0
   77.2910   28.4990   27.3750 C   0  0  0  0  0  0  0  0  0  0  0  0
   76.6310   26.4790   28.2550 C   0  0  0  0  0  0  0  0  0  0  0  0
   77.5640   27.2100   27.6250 C   0  0  0  0  0  0  0  0  0  0  0  0
   78.7660   26.6740   27.2410 O   0  0  0  0  0  0  0  0  0  0  0  0
   72.9910   28.7860   25.1550 C   0  0  0  0  0  0  0  0  0  0  0  0
   73.6520   29.1940   24.0740 C   0  0  0  0  0  0  0  0  0  0  0  0
   71.9440   27.7310   24.9480 C   0  0  0  0  0  0  0  0  0  0  0  0
   75.3750   30.5410   22.7220 C   0  0  0  0  0  0  0  0  0  0  0  0
   74.7370   30.7140   21.5550 C   0  0  0  0  0  0  0  0  0  0  0  0
   75.4150   31.0310   20.4420 C   0  0  0  0  0  0  0  0  0  0  0  0
   76.7480   31.1860   20.4490 C   0  0  0  0  0  0  0  0  0  0  0  0
   77.5390   31.5450   19.2120 C   0  0  0  0  0  0  0  0  0  0  0  0
   76.7870   31.5670   18.0750 F   0  0  0  0  0  0  0  0  0  0  0  0
   78.0850   32.7870   19.3410 F   0  0  0  0  0  0  0  0  0  0  0  0
   78.5640   30.6760   18.9850 F   0  0  0  0  0  0  0  0  0  0  0  0
   77.3830   31.0100   21.6170 C   0  0  0  0  0  0  0  0  0  0  0  0
   76.7070   30.6930   22.7320 C   0  0  0  0  0  0  0  0  0  0  0  0
   74.7450   30.2120   23.9300 C   0  0  0  0  0  0  0  0  0  0  0  0
   75.1210   30.8060   24.9390 O   0  0  0  0  0  0  0  0  0  0  0  0
   80.4760   25.6080   21.7450 O   0  0  0  0  0  0  0  0  0  0  0  0
   80.3680   24.2810   22.0700 C   0  0  0  0  0  0  0  0  0  0  0  0
   80.2490   24.1640   23.4410 N   0  0  0  0  0  0  0  0  0  0  0  0
   80.2860   25.4400   23.9660 C   0  0  0  0  0  0  0  0  0  0  0  0
   80.4280   26.3320   22.9070 C   0  0  0  0  0  0  0  0  0  0  0  0
   80.5220   27.8390   22.9190 C   0  0  0  0  0  0  0  0  0  0  0  0
   80.3820   23.3000   21.1560 C   0  0  0  0  0  0  0  0  0  0  0  0
   80.2790   22.0010   21.4770 C   0  0  0  0  0  0  0  0  0  0  0  0
   80.2990   21.0430   20.5370 C   0  0  0  0  0  0  0  0  0  0  0  0
   80.4240   21.3730   19.2440 C   0  0  0  0  0  0  0  0  0  0  0  0
   80.5270   22.6660   18.9030 C   0  0  0  0  0  0  0  0  0  0  0  0
   80.5060   23.6090   19.8560 C   0  0  0  0  0  0  0  0  0  0  0  0
   78.7840   26.0100   25.9790 C   0  0  0  0  0  0  0  0  0  0  0  0
   80.1870   25.7310   25.4450 C   0  0  0  0  0  0  0  0  0  0  0  0
   71.7930   30.1840   28.1210 C   0  0  0  0  0  0  0  0  0  0  0  0
   70.3870   29.8840   27.8630 N   0  0  0  0  0  0  0  0  0  0  0  0
   69.6470   30.4980   26.9570 C   0  0  0  0  0  0  0  0  0  0  0  0
   70.0640   31.3960   26.2270 O   0  0  0  0  0  0  0  0  0  0  0  0
   68.2010   30.0440   26.8410 C   0  0  0  0  0  0  0  0  0  0  0  0
   67.9990   28.8270   25.9410 C   0  0  0  0  0  0  0  0  0  0  0  0
   74.0550   30.0190   26.3890 H   0  0  0  0  0  0  0  0  0  0  0  0
   72.2280   28.1080   27.6660 H   0  0  0  0  0  0  0  0  0  0  0  0
   73.4640   28.3800   29.6210 H   0  0  0  0  0  0  0  0  0  0  0  0
   74.1110   29.9070   29.1450 H   0  0  0  0  0  0  0  0  0  0  0  0
   75.9320   30.0760   27.5270 H   0  0  0  0  0  0  0  0  0  0  0  0
   74.7520   26.4040   29.1510 H   0  0  0  0  0  0  0  0  0  0  0  0
   78.0230   29.1120   26.8700 H   0  0  0  0  0  0  0  0  0  0  0  0
   76.7580   25.4380   28.4240 H   0  0  0  0  0  0  0  0  0  0  0  0
   72.8840   29.5310   23.3780 H   0  0  0  0  0  0  0  0  0  0  0  0
   74.0600   28.3000   23.6100 H   0  0  0  0  0  0  0  0  0  0  0  0
   71.2200   28.0590   24.2010 H   0  0  0  0  0  0  0  0  0  0  0  0
   72.4080   26.8100   24.5940 H   0  0  0  0  0  0  0  0  0  0  0  0
   71.3930   27.5020   25.8570 H   0  0  0  0  0  0  0  0  0  0  0  0
   73.6620   30.6160   21.4970 H   0  0  0  0  0  0  0  0  0  0  0  0
   74.8830   31.2200   19.5250 H   0  0  0  0  0  0  0  0  0  0  0  0
   78.4560   31.1260   21.6650 H   0  0  0  0  0  0  0  0  0  0  0  0
   77.2780   30.5580   23.6410 H   0  0  0  0  0  0  0  0  0  0  0  0
   79.9050   28.2630   23.7110 H   0  0  0  0  0  0  0  0  0  0  0  0
   81.5510   28.1600   23.0830 H   0  0  0  0  0  0  0  0  0  0  0  0
   80.1840   28.2560   21.9700 H   0  0  0  0  0  0  0  0  0  0  0  0
   80.1920   21.6990   22.5110 H   0  0  0  0  0  0  0  0  0  0  0  0
   80.3130   20.0110   20.8430 H   0  0  0  0  0  0  0  0  0  0  0  0
   80.4670   20.6080   18.4830 H   0  0  0  0  0  0  0  0  0  0  0  0
   80.6310   22.9440   17.8650 H   0  0  0  0  0  0  0  0  0  0  0  0
   80.5950   24.6380   19.5390 H   0  0  0  0  0  0  0  0  0  0  0  0
   78.2950   26.6880   25.2850 H   0  0  0  0  0  0  0  0  0  0  0  0
   78.1900   25.0960   26.0110 H   0  0  0  0  0  0  0  0  0  0  0  0
   80.8110   26.5970   25.6680 H   0  0  0  0  0  0  0  0  0  0  0  0
   80.6230   24.9120   26.0150 H   0  0  0  0  0  0  0  0  0  0  0  0
   72.0860   31.1190   27.6530 H   0  0  0  0  0  0  0  0  0  0  0  0
   71.8700   30.3860   29.1860 H   0  0  0  0  0  0  0  0  0  0  0  0
   69.9500   29.1750   28.4360 H   0  0  0  0  0  0  0  0  0  0  0  0
   67.5820   30.8720   26.4920 H   0  0  0  0  0  0  0  0  0  0  0  0
   67.8420   29.8090   27.8440 H   0  0  0  0  0  0  0  0  0  0  0  0
   67.1870   28.2190   26.3330 H   0  0  0  0  0  0  0  0  0  0  0  0
   67.7960   29.1270   24.9130 H   0  0  0  0  0  0  0  0  0  0  0  0
   68.8800   28.1850   25.9240 H   0  0  0  0  0  0  0  0  0  0  0  0
  1  2  1  0  0  0  0
  1 11  2  0  0  0  0
  1 46  1  0  0  0  0
  2  3  1  0  0  0  0
  2 40  1  0  0  0  0
  2 47  1  6  0  0  0
  3  4  1  0  0  0  0
  3 48  1  0  0  0  0
  3 49  1  0  0  0  0
  4  5  2  0  0  0  0
  4  6  1  0  0  0  0
  5  7  1  0  0  0  0
  5 50  1  0  0  0  0
  6  8  2  0  0  0  0
  6 51  1  0  0  0  0
  7  9  2  0  0  0  0
  7 52  1  0  0  0  0
  8  9  1  0  0  0  0
  8 53  1  0  0  0  0
  9 10  1  0  0  0  0
 10 38  1  0  0  0  0
 11 12  1  0  0  0  0
 11 13  1  0  0  0  0
 12 24  1  0  0  0  0
 12 54  1  0  0  0  0
 12 55  1  0  0  0  0
 13 56  1  0  0  0  0
 13 57  1  0  0  0  0
 13 58  1  0  0  0  0
 14 15  2  0  0  0  0
 14 23  1  0  0  0  0
 14 24  1  0  0  0  0
 15 16  1  0  0  0  0
 15 59  1  0  0  0  0
 16 17  2  0  0  0  0
 16 60  1  0  0  0  0
 17 18  1  0  0  0  0
 17 22  1  0  0  0  0
 18 19  1  0  0  0  0
 18 20  1  0  0  0  0
 18 21  1  0  0  0  0
 22 23  2  0  0  0  0
 22 61  1  0  0  0  0
 23 62  1  0  0  0  0
 24 25  2  0  0  0  0
 26 27  1  0  0  0  0
 26 30  1  0  0  0  0
 27 28  2  0  0  0  0
 27 32  1  0  0  0  0
 28 29  1  0  0  0  0
 29 30  2  0  0  0  0
 29 39  1  0  0  0  0
 30 31  1  0  0  0  0
 31 63  1  0  0  0  0
 31 64  1  0  0  0  0
 31 65  1  0  0  0  0
 32 33  2  0  0  0  0
 32 37  1  0  0  0  0
 33 34  1  0  0  0  0
 33 66  1  0  0  0  0
 34 35  2  0  0  0  0
 34 67  1  0  0  0  0
 35 36  1  0  0  0  0
 35 68  1  0  0  0  0
 36 37  2  0  0  0  0
 36 69  1  0  0  0  0
 37 70  1  0  0  0  0
 38 39  1  0  0  0  0
 38 71  1  0  0  0  0
 38 72  1  0  0  0  0
 39 73  1  0  0  0  0
 39 74  1  0  0  0  0
 40 41  1  0  0  0  0
 40 75  1  0  0  0  0
 40 76  1  0  0  0  0
 41 42  1  0  0  0  0
 41 77  1  0  0  0  0
 42 43  2  0  0  0  0
 42 44  1  0  0  0  0
 44 45  1  0  0  0  0
 44 78  1  0  0  0  0
 44 79  1  0  0  0  0
 45 80  1  0  0  0  0
 45 81  1  0  0  0  0
 45 82  1  0  0  0  0
M  CHG  1   1   1
M  END
>  <COMPND>
    title: molecule 1

$$$$
1NSG_ligand0.pdb
 OpenBabel06042612053D

147150  0  0  1  0  0  0  0  0999 V2000
   -7.0980   26.0170   40.1580 C   0  0  0  0  0  0  0  0  0  0  0  0
   -8.0960   26.6880   39.3660 O   0  0  0  0  0  0  0  0  0  0  0  0
   -5.9430   26.0100   39.7310 O   0  0  0  0  0  0  0  0  0  0  0  0
   -7.4190   25.3670   41.5030 C   0  0  2  0  0  0  0  0  0  0  0  0
   -6.8560   23.9480   41.6020 C   0  0  0  0  0  0  0  0  0  0  0  0
   -7.5930   22.9120   40.7740 C   0  0  0  0  0  0  0  0  0  0  0  0
   -9.0630   22.9230   41.1080 C   0  0  0  0  0  0  0  0  0  0  0  0
   -9.6340   24.3090   40.9130 C   0  0  0  0  0  0  0  0  0  0  0  0
   -8.8560   25.1940   41.7710 N   0  0  0  0  0  0  0  0  0  0  0  0
  -10.8080   25.9700   42.9770 C   0  0  0  0  0  0  0  0  0  0  0  0
   -8.8680   27.0240   43.0710 O   0  0  0  0  0  0  0  0  0  0  0  0
  -11.8860   26.8130   42.2940 C   0  0  1  0  0  0  0  0  0  0  0  0
  -11.1100   25.1640   43.8640 O   0  0  0  0  0  0  0  0  0  0  0  0
  -11.4720   28.3020   42.2830 C   0  0  1  0  0  0  0  0  0  0  0  0
  -11.9340   26.3340   40.9720 O   0  0  0  0  0  0  0  0  0  0  0  0
  -13.1520   26.6710   42.9550 O   0  0  0  0  0  0  0  0  0  0  0  0
  -12.4110   29.1000   41.3710 C   0  0  0  0  0  0  0  0  0  0  0  0
  -12.7740   28.3970   40.0670 C   0  0  0  0  0  0  0  0  0  0  0  0
  -12.9500   26.8790   40.1990 C   0  0  1  0  0  0  0  0  0  0  0  0
  -12.8160   26.2080   38.8350 C   0  0  0  0  0  0  0  0  0  0  0  0
  -13.9030   26.5210   37.8060 C   0  0  1  0  0  0  0  0  0  0  0  0
  -13.6070   25.7150   36.5590 C   0  0  0  0  0  0  0  0  0  0  0  0
  -15.1440   26.1400   38.2730 O   0  0  0  0  0  0  0  0  0  0  0  0
  -13.2630   26.3140   35.4310 C   0  0  0  0  0  0  0  0  0  0  0  0
  -12.9050   25.6380   34.1880 C   0  0  0  0  0  0  0  0  0  0  0  0
  -12.7960   26.3350   33.0710 C   0  0  0  0  0  0  0  0  0  0  0  0
  -12.4310   25.6940   31.8150 C   0  0  0  0  0  0  0  0  0  0  0  0
  -11.6610   26.2860   30.9330 C   0  0  0  0  0  0  0  0  0  0  0  0
  -11.2790   25.6150   29.6380 C   0  0  2  0  0  0  0  0  0  0  0  0
   -9.7700   25.6930   29.4070 C   0  0  0  0  0  0  0  0  0  0  0  0
   -8.8780   25.3330   30.5970 C   0  0  2  0  0  0  0  0  0  0  0  0
   -7.5660   26.0830   30.4900 C   0  0  0  0  0  0  0  0  0  0  0  0
   -7.4620   27.4730   31.1070 C   0  0  1  0  0  0  0  0  0  0  0  0
   -6.6250   25.6030   29.8700 O   0  0  0  0  0  0  0  0  0  0  0  0
   -7.1090   27.3800   32.6060 C   0  0  1  0  0  0  0  0  0  0  0  0
   -6.4170   28.0850   30.4260 O   0  0  0  0  0  0  0  0  0  0  0  0
   -8.2450   26.9410   33.5090 C   0  0  0  0  0  0  0  0  0  0  0  0
   -6.0370   26.4520   32.7940 O   0  0  0  0  0  0  0  0  0  0  0  0
   -8.3280   25.7640   34.1230 C   0  0  0  0  0  0  0  0  0  0  0  0
   -9.4060   25.4160   35.1210 C   0  0  2  0  0  0  0  0  0  0  0  0
   -8.8710   25.6300   36.5370 C   0  0  0  0  0  0  0  0  0  0  0  0
   -8.9910   27.0070   37.1650 C   0  0  0  0  0  0  0  0  0  0  0  0
   -8.3510   24.7060   37.1630 O   0  0  0  0  0  0  0  0  0  0  0  0
   -7.8500   27.3110   38.1400 C   0  0  1  0  0  0  0  0  0  0  0  0
   -7.7540   28.8310   38.4070 C   0  0  1  0  0  0  0  0  0  0  0  0
   -7.1860   29.5440   37.1830 C   0  0  0  0  0  0  0  0  0  0  0  0
   -5.8780   29.0160   36.5940 C   0  0  1  0  0  0  0  0  0  0  0  0
   -5.5860   29.7930   35.3080 C   0  0  0  0  0  0  0  0  0  0  0  0
   -4.1960   29.7120   34.6590 C   0  0  2  0  0  0  0  0  0  0  0  0
   -3.0530   29.7770   35.7220 C   0  0  1  0  0  0  0  0  0  0  0  0
   -4.0980   30.8380   33.8450 O   0  0  0  0  0  0  0  0  0  0  0  0
   -3.3670   28.9110   36.9460 C   0  0  0  0  0  0  0  0  0  0  0  0
   -1.8290   29.2960   35.1550 O   0  0  0  0  0  0  0  0  0  0  0  0
   -4.7180   29.1870   37.5710 C   0  0  0  0  0  0  0  0  0  0  0  0
  -11.5170   28.8810   43.6940 C   0  0  0  0  0  0  0  0  0  0  0  0
  -13.7220   24.1980   36.7870 C   0  0  0  0  0  0  0  0  0  0  0  0
  -12.0290   26.3000   28.5100 C   0  0  0  0  0  0  0  0  0  0  0  0
   -8.6260   23.8380   30.6450 C   0  0  0  0  0  0  0  0  0  0  0  0
   -9.2910   28.0250   33.6010 C   0  0  0  0  0  0  0  0  0  0  0  0
   -9.8210   23.9680   34.9180 C   0  0  0  0  0  0  0  0  0  0  0  0
   -9.1250   29.4020   38.7480 C   0  0  0  0  0  0  0  0  0  0  0  0
  -16.2630   26.9180   38.0160 C   0  0  0  0  0  0  0  0  0  0  0  0
   -6.7660   29.0390   29.4900 C   0  0  0  0  0  0  0  0  0  0  0  0
   -4.9450   30.9310   32.7390 C   0  0  0  0  0  0  0  0  0  0  0  0
  -17.3150   25.8440   38.0100 C   0  0  0  0  0  0  0  0  0  0  0  0
   -9.4710   26.0700   42.5850 C   0  0  0  0  0  0  0  0  0  0  0  0
   -6.9060   25.9450   42.2740 H   0  0  0  0  0  0  0  0  0  0  0  0
   -6.9320   23.6600   42.6470 H   0  0  0  0  0  0  0  0  0  0  0  0
   -5.7920   23.9310   41.3640 H   0  0  0  0  0  0  0  0  0  0  0  0
   -7.1770   21.9220   40.9410 H   0  0  0  0  0  0  0  0  0  0  0  0
   -7.4560   23.1190   39.7120 H   0  0  0  0  0  0  0  0  0  0  0  0
   -9.2170   22.5920   42.1370 H   0  0  0  0  0  0  0  0  0  0  0  0
   -9.5910   22.2100   40.4740 H   0  0  0  0  0  0  0  0  0  0  0  0
  -10.6990   24.2350   41.1250 H   0  0  0  0  0  0  0  0  0  0  0  0
   -9.5600   24.6110   39.8680 H   0  0  0  0  0  0  0  0  0  0  0  0
  -10.4800   28.4200   41.8500 H   0  0  0  0  0  0  0  0  0  0  0  0
  -13.3820   25.7490   42.9340 H   0  0  0  0  0  0  0  0  0  0  0  0
  -11.9970   30.0880   41.1650 H   0  0  0  0  0  0  0  0  0  0  0  0
  -13.3450   29.2780   41.9070 H   0  0  0  0  0  0  0  0  0  0  0  0
  -11.9650   28.5920   39.3630 H   0  0  0  0  0  0  0  0  0  0  0  0
  -13.6660   28.8500   39.6340 H   0  0  0  0  0  0  0  0  0  0  0  0
  -13.9300   26.6400   40.6150 H   0  0  0  0  0  0  0  0  0  0  0  0
  -12.8020   25.1370   39.0350 H   0  0  0  0  0  0  0  0  0  0  0  0
  -11.8390   26.4370   38.4120 H   0  0  0  0  0  0  0  0  0  0  0  0
  -13.8900   27.5900   37.5870 H   0  0  0  0  0  0  0  0  0  0  0  0
  -13.2170   27.3920   35.4320 H   0  0  0  0  0  0  0  0  0  0  0  0
  -12.7180   24.5740   34.1730 H   0  0  0  0  0  0  0  0  0  0  0  0
  -12.9720   27.4020   33.0810 H   0  0  0  0  0  0  0  0  0  0  0  0
  -12.8290   24.7440   31.5840 H   0  0  0  0  0  0  0  0  0  0  0  0
  -11.2590   27.2660   31.1220 H   0  0  0  0  0  0  0  0  0  0  0  0
  -11.5730   24.5650   29.6720 H   0  0  0  0  0  0  0  0  0  0  0  0
   -9.5500   26.7150   29.0910 H   0  0  0  0  0  0  0  0  0  0  0  0
   -9.5060   25.0820   28.5420 H   0  0  0  0  0  0  0  0  0  0  0  0
   -9.3420   25.6380   31.5310 H   0  0  0  0  0  0  0  0  0  0  0  0
   -8.3890   28.0190   30.9770 H   0  0  0  0  0  0  0  0  0  0  0  0
   -6.7510   28.3530   32.9260 H   0  0  0  0  0  0  0  0  0  0  0  0
   -5.8620   26.3700   33.7230 H   0  0  0  0  0  0  0  0  0  0  0  0
   -7.5580   25.0130   34.0070 H   0  0  0  0  0  0  0  0  0  0  0  0
  -10.2940   26.0270   34.9970 H   0  0  0  0  0  0  0  0  0  0  0  0
   -9.9560   27.0850   37.6600 H   0  0  0  0  0  0  0  0  0  0  0  0
   -9.0010   27.7200   36.3460 H   0  0  0  0  0  0  0  0  0  0  0  0
   -6.9170   26.9210   37.7410 H   0  0  0  0  0  0  0  0  0  0  0  0
   -7.0540   29.0030   39.2180 H   0  0  0  0  0  0  0  0  0  0  0  0
   -7.0830   30.6040   37.4170 H   0  0  0  0  0  0  0  0  0  0  0  0
   -7.9260   29.4920   36.3890 H   0  0  0  0  0  0  0  0  0  0  0  0
   -5.9580   27.9710   36.3040 H   0  0  0  0  0  0  0  0  0  0  0  0
   -5.7420   30.8470   35.5470 H   0  0  0  0  0  0  0  0  0  0  0  0
   -6.3650   29.5610   34.5890 H   0  0  0  0  0  0  0  0  0  0  0  0
   -4.1160   28.7910   34.0780 H   0  0  0  0  0  0  0  0  0  0  0  0
   -2.9120   30.8080   36.0500 H   0  0  0  0  0  0  0  0  0  0  0  0
   -2.5820   29.0270   37.6930 H   0  0  0  0  0  0  0  0  0  0  0  0
   -3.3490   27.8690   36.6300 H   0  0  0  0  0  0  0  0  0  0  0  0
   -1.9780   28.4380   34.7790 H   0  0  0  0  0  0  0  0  0  0  0  0
   -4.8570   28.5180   38.4200 H   0  0  0  0  0  0  0  0  0  0  0  0
   -4.7180   30.2000   37.9760 H   0  0  0  0  0  0  0  0  0  0  0  0
  -11.2420   29.9360   43.6750 H   0  0  0  0  0  0  0  0  0  0  0  0
  -12.5050   28.8190   44.1500 H   0  0  0  0  0  0  0  0  0  0  0  0
  -10.8130   28.3920   44.3650 H   0  0  0  0  0  0  0  0  0  0  0  0
  -13.8440   23.6690   35.8450 H   0  0  0  0  0  0  0  0  0  0  0  0
  -12.8230   23.8040   37.2610 H   0  0  0  0  0  0  0  0  0  0  0  0
  -14.5820   23.9350   37.4020 H   0  0  0  0  0  0  0  0  0  0  0  0
  -11.7370   25.8990   27.5400 H   0  0  0  0  0  0  0  0  0  0  0  0
  -13.1060   26.1640   28.6130 H   0  0  0  0  0  0  0  0  0  0  0  0
  -11.8280   27.3700   28.4940 H   0  0  0  0  0  0  0  0  0  0  0  0
   -7.9480   23.5740   31.4580 H   0  0  0  0  0  0  0  0  0  0  0  0
   -9.5570   23.2980   30.8180 H   0  0  0  0  0  0  0  0  0  0  0  0
   -8.1970   23.4580   29.7170 H   0  0  0  0  0  0  0  0  0  0  0  0
  -10.0450   27.8900   34.3710 H   0  0  0  0  0  0  0  0  0  0  0  0
   -8.8170   28.9840   33.8070 H   0  0  0  0  0  0  0  0  0  0  0  0
   -9.8160   28.1130   32.6540 H   0  0  0  0  0  0  0  0  0  0  0  0
  -10.5870   23.6720   35.6350 H   0  0  0  0  0  0  0  0  0  0  0  0
  -10.2420   23.8240   33.9220 H   0  0  0  0  0  0  0  0  0  0  0  0
   -8.9830   23.2760   35.0170 H   0  0  0  0  0  0  0  0  0  0  0  0
   -9.0490   30.4630   38.9900 H   0  0  0  0  0  0  0  0  0  0  0  0
   -9.8360   29.3040   37.9330 H   0  0  0  0  0  0  0  0  0  0  0  0
   -9.5530   28.9080   39.6200 H   0  0  0  0  0  0  0  0  0  0  0  0
  -16.2070   27.4010   37.0390 H   0  0  0  0  0  0  0  0  0  0  0  0
  -16.4190   27.6730   38.7870 H   0  0  0  0  0  0  0  0  0  0  0  0
   -5.8690   29.4290   29.0100 H   0  0  0  0  0  0  0  0  0  0  0  0
   -7.4100   28.6200   28.7160 H   0  0  0  0  0  0  0  0  0  0  0  0
   -7.2790   29.8700   29.9700 H   0  0  0  0  0  0  0  0  0  0  0  0
   -4.6270   31.7650   32.1140 H   0  0  0  0  0  0  0  0  0  0  0  0
   -4.9030   30.0270   32.1300 H   0  0  0  0  0  0  0  0  0  0  0  0
   -5.9810   31.1200   33.0190 H   0  0  0  0  0  0  0  0  0  0  0  0
  -18.2700   26.2670   37.7180 H   0  0  0  0  0  0  0  0  0  0  0  0
  -17.0820   25.0430   37.3060 H   0  0  0  0  0  0  0  0  0  0  0  0
  -17.4660   25.4130   38.9960 H   0  0  0  0  0  0  0  0  0  0  0  0
  1  2  1  0  0  0  0
  1  3  2  0  0  0  0
  1  4  1  0  0  0  0
  2 44  1  0  0  0  0
  4  5  1  0  0  0  0
  4  9  1  0  0  0  0
  4 67  1  1  0  0  0
  5  6  1  0  0  0  0
  5 68  1  0  0  0  0
  5 69  1  0  0  0  0
  6  7  1  0  0  0  0
  6 70  1  0  0  0  0
  6 71  1  0  0  0  0
  7  8  1  0  0  0  0
  7 72  1  0  0  0  0
  7 73  1  0  0  0  0
  8  9  1  0  0  0  0
  8 74  1  0  0  0  0
  8 75  1  0  0  0  0
  9 66  1  0  0  0  0
 10 12  1  0  0  0  0
 10 13  2  0  0  0  0
 10 66  1  0  0  0  0
 11 66  2  0  0  0  0
 12 14  1  0  0  0  0
 12 15  1  0  0  0  0
 12 16  1  1  0  0  0
 14 17  1  0  0  0  0
 14 55  1  0  0  0  0
 14 76  1  6  0  0  0
 15 19  1  0  0  0  0
 16 77  1  0  0  0  0
 17 18  1  0  0  0  0
 17 78  1  0  0  0  0
 17 79  1  0  0  0  0
 18 19  1  0  0  0  0
 18 80  1  0  0  0  0
 18 81  1  0  0  0  0
 19 20  1  0  0  0  0
 19 82  1  1  0  0  0
 20 21  1  0  0  0  0
 20 83  1  0  0  0  0
 20 84  1  0  0  0  0
 21 22  1  0  0  0  0
 21 23  1  0  0  0  0
 21 85  1  6  0  0  0
 22 24  2  0  0  0  0
 22 56  1  0  0  0  0
 23 62  1  0  0  0  0
 24 25  1  0  0  0  0
 24 86  1  0  0  0  0
 25 26  2  0  0  0  0
 25 87  1  0  0  0  0
 26 27  1  0  0  0  0
 26 88  1  0  0  0  0
 27 28  2  0  0  0  0
 27 89  1  0  0  0  0
 28 29  1  0  0  0  0
 28 90  1  0  0  0  0
 29 30  1  0  0  0  0
 29 57  1  0  0  0  0
 29 91  1  1  0  0  0
 30 31  1  0  0  0  0
 30 92  1  0  0  0  0
 30 93  1  0  0  0  0
 31 32  1  0  0  0  0
 31 58  1  0  0  0  0
 31 94  1  1  0  0  0
 32 33  1  0  0  0  0
 32 34  2  0  0  0  0
 33 35  1  0  0  0  0
 33 36  1  0  0  0  0
 33 95  1  6  0  0  0
 35 37  1  0  0  0  0
 35 38  1  0  0  0  0
 35 96  1  1  0  0  0
 36 63  1  0  0  0  0
 37 39  2  0  0  0  0
 37 59  1  0  0  0  0
 38 97  1  0  0  0  0
 39 40  1  0  0  0  0
 39 98  1  0  0  0  0
 40 41  1  0  0  0  0
 40 60  1  0  0  0  0
 40 99  1  6  0  0  0
 41 42  1  0  0  0  0
 41 43  2  0  0  0  0
 42 44  1  0  0  0  0
 42100  1  0  0  0  0
 42101  1  0  0  0  0
 44 45  1  0  0  0  0
 44102  1  6  0  0  0
 45 46  1  0  0  0  0
 45 61  1  0  0  0  0
 45103  1  1  0  0  0
 46 47  1  0  0  0  0
 46104  1  0  0  0  0
 46105  1  0  0  0  0
 47 48  1  0  0  0  0
 47 54  1  0  0  0  0
 47106  1  6  0  0  0
 48 49  1  0  0  0  0
 48107  1  0  0  0  0
 48108  1  0  0  0  0
 49 50  1  0  0  0  0
 49 51  1  0  0  0  0
 49109  1  6  0  0  0
 50 52  1  0  0  0  0
 50 53  1  0  0  0  0
 50110  1  1  0  0  0
 51 64  1  0  0  0  0
 52 54  1  0  0  0  0
 52111  1  0  0  0  0
 52112  1  0  0  0  0
 53113  1  0  0  0  0
 54114  1  0  0  0  0
 54115  1  0  0  0  0
 55116  1  0  0  0  0
 55117  1  0  0  0  0
 55118  1  0  0  0  0
 56119  1  0  0  0  0
 56120  1  0  0  0  0
 56121  1  0  0  0  0
 57122  1  0  0  0  0
 57123  1  0  0  0  0
 57124  1  0  0  0  0
 58125  1  0  0  0  0
 58126  1  0  0  0  0
 58127  1  0  0  0  0
 59128  1  0  0  0  0
 59129  1  0  0  0  0
 59130  1  0  0  0  0
 60131  1  0  0  0  0
 60132  1  0  0  0  0
 60133  1  0  0  0  0
 61134  1  0  0  0  0
 61135  1  0  0  0  0
 61136  1  0  0  0  0
 62 65  1  0  0  0  0
 62137  1  0  0  0  0
 62138  1  0  0  0  0
 63139  1  0  0  0  0
 63140  1  0  0  0  0
 63141  1  0  0  0  0
 64142  1  0  0  0  0
 64143  1  0  0  0  0
 64144  1  0  0  0  0
 65145  1  0  0  0  0
 65146  1  0  0  0  0
 65147  1  0  0  0  0
M  END
>  <COMPND>
    title: molecule 1

$$$$
1R8Q_ligand0.pdb
 OpenBabel06042612053D

 44 45  0  0  1  0  0  0  0  0999 V2000
   10.0910    6.8570   32.0840 O   0  0  0  0  0  0  0  0  0  0  0  0
    8.7250    7.2320   31.9100 C   0  0  1  0  0  0  0  0  0  0  0  0
    7.9640    6.1570   31.2310 C   0  0  0  0  0  0  0  0  0  0  0  0
    8.0890    7.2920   33.3370 C   0  0  0  0  0  0  0  0  0  0  0  0
    6.5380    7.0670   33.0360 C   0  0  2  0  0  0  0  0  0  0  0  0
    6.5060    6.6790   31.5660 C   0  0  2  0  0  0  0  0  0  0  0  0
    5.5020    5.5280   31.3330 C   0  0  0  0  0  0  0  0  0  0  0  0
    4.5110    5.6510   30.3590 C   0  0  0  0  0  0  0  0  0  0  0  0
    3.5790    4.4910   30.1500 C   0  0  0  0  0  0  0  0  0  0  0  0
    2.0900    4.8720   30.6080 C   0  0  0  0  0  0  0  0  0  0  0  0
    1.4940    6.0920   29.8490 C   0  0  0  0  0  0  0  0  0  0  0  0
    0.7970    7.0430   30.8690 C   0  0  2  0  0  0  0  0  0  0  0  0
    0.1650    8.0980   29.9060 C   0  0  0  0  0  0  0  0  0  0  0  0
    1.9860    7.7240   31.3940 O   0  0  0  0  0  0  0  0  0  0  0  0
    1.9720    8.1170   32.6590 C   0  0  0  0  0  0  0  0  0  0  0  0
    0.8730    8.3170   33.1860 O   0  0  0  0  0  0  0  0  0  0  0  0
    3.1900    8.4720   33.3190 C   0  0  0  0  0  0  0  0  0  0  0  0
    4.3400    8.2000   32.5760 C   0  0  0  0  0  0  0  0  0  0  0  0
    5.7730    8.4290   33.1600 C   0  0  1  0  0  0  0  0  0  0  0  0
    5.7460    8.8330   34.5550 O   0  0  0  0  0  0  0  0  0  0  0  0
   10.1490    6.0640   32.6010 H   0  0  0  0  0  0  0  0  0  0  0  0
    8.6370    8.1900   31.3950 H   0  0  0  0  0  0  0  0  0  0  0  0
    8.1580    5.1780   31.6720 H   0  0  0  0  0  0  0  0  0  0  0  0
    8.1720    6.1160   30.1630 H   0  0  0  0  0  0  0  0  0  0  0  0
    8.3000    8.2240   33.8510 H   0  0  0  0  0  0  0  0  0  0  0  0
    8.4560    6.4760   33.9580 H   0  0  0  0  0  0  0  0  0  0  0  0
    6.1200    6.3030   33.6930 H   0  0  0  0  0  0  0  0  0  0  0  0
    6.3090    7.5180   30.9000 H   0  0  0  0  0  0  0  0  0  0  0  0
    5.5990    4.6380   31.9360 H   0  0  0  0  0  0  0  0  0  0  0  0
    4.4130    6.5320   29.7430 H   0  0  0  0  0  0  0  0  0  0  0  0
    3.9200    3.6190   30.7090 H   0  0  0  0  0  0  0  0  0  0  0  0
    3.5940    4.2120   29.0960 H   0  0  0  0  0  0  0  0  0  0  0  0
    2.1060    5.0580   31.6830 H   0  0  0  0  0  0  0  0  0  0  0  0
    1.4370    4.0100   30.4710 H   0  0  0  0  0  0  0  0  0  0  0  0
    0.7710    5.7140   29.1240 H   0  0  0  0  0  0  0  0  0  0  0  0
    2.2480    6.6190   29.2660 H   0  0  0  0  0  0  0  0  0  0  0  0
    0.1280    6.5630   31.5840 H   0  0  0  0  0  0  0  0  0  0  0  0
   -0.2660    8.9210   30.4770 H   0  0  0  0  0  0  0  0  0  0  0  0
    0.8930    8.5290   29.2180 H   0  0  0  0  0  0  0  0  0  0  0  0
   -0.6400    7.6600   29.3150 H   0  0  0  0  0  0  0  0  0  0  0  0
    3.1930    8.8080   34.3410 H   0  0  0  0  0  0  0  0  0  0  0  0
    4.2850    7.8950   31.5490 H   0  0  0  0  0  0  0  0  0  0  0  0
    6.2740    9.2080   32.5910 H   0  0  0  0  0  0  0  0  0  0  0  0
    5.3450    8.1470   35.0810 H   0  0  0  0  0  0  0  0  0  0  0  0
  1  2  1  0  0  0  0
  1 21  1  0  0  0  0
  2  3  1  0  0  0  0
  2  4  1  0  0  0  0
  2 22  1  6  0  0  0
  3  6  1  0  0  0  0
  3 23  1  0  0  0  0
  3 24  1  0  0  0  0
  4  5  1  0  0  0  0
  4 25  1  0  0  0  0
  4 26  1  0  0  0  0
  5  6  1  0  0  0  0
  5 19  1  0  0  0  0
  5 27  1  1  0  0  0
  6  7  1  0  0  0  0
  6 28  1  6  0  0  0
  7  8  2  0  0  0  0
  7 29  1  0  0  0  0
  8  9  1  0  0  0  0
  8 30  1  0  0  0  0
  9 10  1  0  0  0  0
  9 31  1  0  0  0  0
  9 32  1  0  0  0  0
 10 11  1  0  0  0  0
 10 33  1  0  0  0  0
 10 34  1  0  0  0  0
 11 12  1  0  0  0  0
 11 35  1  0  0  0  0
 11 36  1  0  0  0  0
 12 13  1  0  0  0  0
 12 14  1  0  0  0  0
 12 37  1  1  0  0  0
 13 38  1  0  0  0  0
 13 39  1  0  0  0  0
 13 40  1  0  0  0  0
 14 15  1  0  0  0  0
 15 16  2  0  0  0  0
 15 17  1  0  0  0  0
 17 18  2  0  0  0  0
 17 41  1  0  0  0  0
 18 19  1  0  0  0  0
 18 42  1  0  0  0  0
 19 20  1  0  0  0  0
 19 43  1  6  0  0  0
 20 44  1  0  0  0  0
M  END
>  <COMPND>
    title: molecule 1

$$$$
1RE0_ligand0.pdb
 OpenBabel06042612053D

 44 45  0  0  1  0  0  0  0  0999 V2000
   41.7120   12.2160   35.5400 O   0  0  0  0  0  0  0  0  0  0  0  0
   41.6340   10.9370   36.2550 C   0  0  1  0  0  0  0  0  0  0  0  0
   42.9750   10.4790   36.7710 C   0  0  0  0  0  0  0  0  0  0  0  0
   40.7910   10.7860   37.4900 C   0  0  0  0  0  0  0  0  0  0  0  0
   41.1120    9.3440   37.9420 C   0  0  2  0  0  0  0  0  0  0  0  0
   42.6250    9.1410   37.4240 C   0  0  2  0  0  0  0  0  0  0  0  0
   43.5350    8.7580   38.5480 C   0  0  0  0  0  0  0  0  0  0  0  0
   44.0620    7.5590   38.6970 C   0  0  0  0  0  0  0  0  0  0  0  0
   44.9780    7.0910   39.8160 C   0  0  0  0  0  0  0  0  0  0  0  0
   44.4180    5.8920   40.6060 C   0  0  0  0  0  0  0  0  0  0  0  0
   44.2590    4.5810   39.8140 C   0  0  0  0  0  0  0  0  0  0  0  0
   42.8780    3.9220   39.8640 C   0  0  2  0  0  0  0  0  0  0  0  0
   42.8250    2.6630   39.0710 C   0  0  0  0  0  0  0  0  0  0  0  0
   42.0060    4.9390   39.2700 O   0  0  0  0  0  0  0  0  0  0  0  0
   40.7060    5.0400   39.6300 C   0  0  0  0  0  0  0  0  0  0  0  0
   40.1610    4.3330   40.4350 O   0  0  0  0  0  0  0  0  0  0  0  0
   39.9910    6.1330   38.9320 C   0  0  0  0  0  0  0  0  0  0  0  0
   40.5820    6.9190   38.0530 C   0  0  0  0  0  0  0  0  0  0  0  0
   40.0980    8.2470   37.5120 C   0  0  1  0  0  0  0  0  0  0  0  0
   38.8340    8.6170   38.0610 O   0  0  0  0  0  0  0  0  0  0  0  0
   40.8250   12.5100   35.3460 H   0  0  0  0  0  0  0  0  0  0  0  0
   41.2770   10.2270   35.5050 H   0  0  0  0  0  0  0  0  0  0  0  0
   43.3740   11.1860   37.5000 H   0  0  0  0  0  0  0  0  0  0  0  0
   43.7120   10.3620   35.9750 H   0  0  0  0  0  0  0  0  0  0  0  0
   39.7350   10.9470   37.2850 H   0  0  0  0  0  0  0  0  0  0  0  0
   41.0920   11.5120   38.2420 H   0  0  0  0  0  0  0  0  0  0  0  0
   41.1130    9.3610   39.0340 H   0  0  0  0  0  0  0  0  0  0  0  0
   42.6470    8.3730   36.6540 H   0  0  0  0  0  0  0  0  0  0  0  0
   43.7090    9.5150   39.2970 H   0  0  0  0  0  0  0  0  0  0  0  0
   43.8590    6.8160   37.9400 H   0  0  0  0  0  0  0  0  0  0  0  0
   45.1470    7.9210   40.5020 H   0  0  0  0  0  0  0  0  0  0  0  0
   45.9500    6.8380   39.3900 H   0  0  0  0  0  0  0  0  0  0  0  0
   43.4700    6.1800   41.0620 H   0  0  0  0  0  0  0  0  0  0  0  0
   45.0900    5.6970   41.4410 H   0  0  0  0  0  0  0  0  0  0  0  0
   45.0070    3.8700   40.1700 H   0  0  0  0  0  0  0  0  0  0  0  0
   44.5150    4.7630   38.7720 H   0  0  0  0  0  0  0  0  0  0  0  0
   42.6030    3.7290   40.9020 H   0  0  0  0  0  0  0  0  0  0  0  0
   41.8310    2.2180   39.1090 H   0  0  0  0  0  0  0  0  0  0  0  0
   43.0680    2.8400   38.0230 H   0  0  0  0  0  0  0  0  0  0  0  0
   43.5290    1.9250   39.4580 H   0  0  0  0  0  0  0  0  0  0  0  0
   39.0010    6.3750   39.2870 H   0  0  0  0  0  0  0  0  0  0  0  0
   41.5800    6.6800   37.7280 H   0  0  0  0  0  0  0  0  0  0  0  0
   40.0180    8.1960   36.4270 H   0  0  0  0  0  0  0  0  0  0  0  0
   38.9330    8.8020   38.9870 H   0  0  0  0  0  0  0  0  0  0  0  0
  1  2  1  0  0  0  0
  1 21  1  0  0  0  0
  2  3  1  0  0  0  0
  2  4  1  0  0  0  0
  2 22  1  6  0  0  0
  3  6  1  0  0  0  0
  3 23  1  0  0  0  0
  3 24  1  0  0  0  0
  4  5  1  0  0  0  0
  4 25  1  0  0  0  0
  4 26  1  0  0  0  0
  5  6  1  0  0  0  0
  5 19  1  0  0  0  0
  5 27  1  1  0  0  0
  6  7  1  0  0  0  0
  6 28  1  6  0  0  0
  7  8  2  0  0  0  0
  7 29  1  0  0  0  0
  8  9  1  0  0  0  0
  8 30  1  0  0  0  0
  9 10  1  0  0  0  0
  9 31  1  0  0  0  0
  9 32  1  0  0  0  0
 10 11  1  0  0  0  0
 10 33  1  0  0  0  0
 10 34  1  0  0  0  0
 11 12  1  0  0  0  0
 11 35  1  0  0  0  0
 11 36  1  0  0  0  0
 12 13  1  0  0  0  0
 12 14  1  0  0  0  0
 12 37  1  1  0  0  0
 13 38  1  0  0  0  0
 13 39  1  0  0  0  0
 13 40  1  0  0  0  0
 14 15  1  0  0  0  0
 15 16  2  0  0  0  0
 15 17  1  0  0  0  0
 17 18  2  0  0  0  0
 17 41  1  0  0  0  0
 18 19  1  0  0  0  0
 18 42  1  0  0  0  0
 19 20  1  0  0  0  0
 19 43  1  6  0  0  0
 20 44  1  0  0  0  0
M  END
>  <COMPND>
    title: molecule 1

$$$$
1S9D_ligand0.pdb
 OpenBabel06042612053D

 44 45  0  0  1  0  0  0  0  0999 V2000
   28.6040    9.4920   25.9500 O   0  0  0  0  0  0  0  0  0  0  0  0
   28.3140   10.1080   27.3490 C   0  0  1  0  0  0  0  0  0  0  0  0
   26.8220    9.8440   27.5380 C   0  0  0  0  0  0  0  0  0  0  0  0
   28.9300    9.1740   28.2920 C   0  0  0  0  0  0  0  0  0  0  0  0
   28.0640    9.4490   29.5860 C   0  0  2  0  0  0  0  0  0  0  0  0
   26.8360   10.2210   29.0770 C   0  0  2  0  0  0  0  0  0  0  0  0
   25.4980    9.7260   29.7630 C   0  0  0  0  0  0  0  0  0  0  0  0
   24.5890   10.5920   30.3680 C   0  0  0  0  0  0  0  0  0  0  0  0
   23.4900    9.9400   30.9870 C   0  0  0  0  0  0  0  0  0  0  0  0
   23.6040   10.1210   32.5490 C   0  0  0  0  0  0  0  0  0  0  0  0
   23.5580   11.6720   32.8890 C   0  0  0  0  0  0  0  0  0  0  0  0
   24.7150   11.9680   33.8780 C   0  0  2  0  0  0  0  0  0  0  0  0
   24.6590   13.4860   34.4880 C   0  0  0  0  0  0  0  0  0  0  0  0
   26.0710   11.7200   33.2330 O   0  0  0  0  0  0  0  0  0  0  0  0
   27.1230   11.1940   33.8750 C   0  0  0  0  0  0  0  0  0  0  0  0
   27.0930   11.2200   35.1580 O   0  0  0  0  0  0  0  0  0  0  0  0
   28.2040   10.6830   33.0960 C   0  0  0  0  0  0  0  0  0  0  0  0
   27.9230   10.8600   31.6990 C   0  0  0  0  0  0  0  0  0  0  0  0
   28.8630   10.3980   30.4750 C   0  0  1  0  0  0  0  0  0  0  0  0
   30.0290    9.7530   31.0300 O   0  0  0  0  0  0  0  0  0  0  0  0
   29.5320    9.5830   25.7660 H   0  0  0  0  0  0  0  0  0  0  0  0
   28.6260   11.1490   27.4490 H   0  0  0  0  0  0  0  0  0  0  0  0
   26.5390    8.8050   27.3580 H   0  0  0  0  0  0  0  0  0  0  0  0
   26.1990   10.5040   26.9360 H   0  0  0  0  0  0  0  0  0  0  0  0
   29.9880    9.3550   28.4380 H   0  0  0  0  0  0  0  0  0  0  0  0
   28.8070    8.1350   27.9820 H   0  0  0  0  0  0  0  0  0  0  0  0
   27.8080    8.5200   30.0990 H   0  0  0  0  0  0  0  0  0  0  0  0
   26.9270   11.3040   29.1610 H   0  0  0  0  0  0  0  0  0  0  0  0
   25.3460    8.6570   29.7710 H   0  0  0  0  0  0  0  0  0  0  0  0
   24.7200   11.6630   30.3730 H   0  0  0  0  0  0  0  0  0  0  0  0
   23.4290    8.8770   30.7510 H   0  0  0  0  0  0  0  0  0  0  0  0
   22.5650   10.3870   30.6220 H   0  0  0  0  0  0  0  0  0  0  0  0
   24.5170    9.6430   32.9060 H   0  0  0  0  0  0  0  0  0  0  0  0
   22.7810    9.6080   33.0460 H   0  0  0  0  0  0  0  0  0  0  0  0
   22.6000   11.9100   33.3510 H   0  0  0  0  0  0  0  0  0  0  0  0
   23.6430   12.3280   32.0310 H   0  0  0  0  0  0  0  0  0  0  0  0
   24.6070   11.2760   34.7110 H   0  0  0  0  0  0  0  0  0  0  0  0
   25.4060   13.6210   35.2680 H   0  0  0  0  0  0  0  0  0  0  0  0
   24.8510   14.2230   33.7090 H   0  0  0  0  0  0  0  0  0  0  0  0
   23.6820   13.7070   34.9160 H   0  0  0  0  0  0  0  0  0  0  0  0
   29.0680   10.1980   33.5260 H   0  0  0  0  0  0  0  0  0  0  0  0
   27.0640   11.3830   31.3190 H   0  0  0  0  0  0  0  0  0  0  0  0
   29.1900   11.2760   29.9240 H   0  0  0  0  0  0  0  0  0  0  0  0
   29.7550    8.9690   31.4910 H   0  0  0  0  0  0  0  0  0  0  0  0
  1  2  1  0  0  0  0
  1 21  1  0  0  0  0
  2  3  1  0  0  0  0
  2  4  1  0  0  0  0
  2 22  1  1  0  0  0
  3  6  1  0  0  0  0
  3 23  1  0  0  0  0
  3 24  1  0  0  0  0
  4  5  1  0  0  0  0
  4 25  1  0  0  0  0
  4 26  1  0  0  0  0
  5  6  1  0  0  0  0
  5 19  1  0  0  0  0
  5 27  1  1  0  0  0
  6  7  1  0  0  0  0
  6 28  1  1  0  0  0
  7  8  2  0  0  0  0
  7 29  1  0  0  0  0
  8  9  1  0  0  0  0
  8 30  1  0  0  0  0
  9 10  1  0  0  0  0
  9 31  1  0  0  0  0
  9 32  1  0  0  0  0
 10 11  1  0  0  0  0
 10 33  1  0  0  0  0
 10 34  1  0  0  0  0
 11 12  1  0  0  0  0
 11 35  1  0  0  0  0
 11 36  1  0  0  0  0
 12 13  1  0  0  0  0
 12 14  1  0  0  0  0
 12 37  1  1  0  0  0
 13 38  1  0  0  0  0
 13 39  1  0  0  0  0
 13 40  1  0  0  0  0
 14 15  1  0  0  0  0
 15 16  2  0  0  0  0
 15 17  1  0  0  0  0
 17 18  2  0  0  0  0
 17 41  1  0  0  0  0
 18 19  1  0  0  0  0
 18 42  1  0  0  0  0
 19 20  1  0  0  0  0
 19 43  1  6  0  0  0
 20 44  1  0  0  0  0
M  END
>  <COMPND>
    title: molecule 1

$$$$
1TCO_ligand0.pdb
 OpenBabel06042612053D

126129  0  0  1  0  0  0  0  0999 V2000
   55.6910   42.8170   53.5550 C   0  0  0  0  0  0  0  0  0  0  0  0
   55.4390   44.0610   52.6960 C   0  0  2  0  0  0  0  0  0  0  0  0
   54.8500   43.6270   51.3530 C   0  0  0  0  0  0  0  0  0  0  0  0
   55.8590   42.9500   50.4540 C   0  0  0  0  0  0  0  0  0  0  0  0
   56.9510   43.9510   50.1620 C   0  0  0  0  0  0  0  0  0  0  0  0
   57.5790   44.5350   51.4500 C   0  0  0  0  0  0  0  0  0  0  0  0
   56.5360   46.1350   53.0370 C   0  0  0  0  0  0  0  0  0  0  0  0
   57.6860   47.1050   52.7800 C   0  0  0  0  0  0  0  0  0  0  0  0
   58.9250   47.1330   53.7560 C   0  0  1  0  0  0  0  0  0  0  0  0
   58.6760   46.7620   55.2820 C   0  0  1  0  0  0  0  0  0  0  0  0
   59.9120   46.2350   56.0430 C   0  0  0  0  0  0  0  0  0  0  0  0
   60.8090   45.3210   55.2370 C   0  0  1  0  0  0  0  0  0  0  0  0
   61.0700   45.9610   53.8180 C   0  0  1  0  0  0  0  0  0  0  0  0
   61.9140   45.2000   52.7540 C   0  0  2  0  0  0  0  0  0  0  0  0
   61.4840   43.6960   52.6860 C   0  0  0  0  0  0  0  0  0  0  0  0
   62.1490   42.7870   51.6070 C   0  0  2  0  0  0  0  0  0  0  0  0
   63.4790   42.1220   52.0800 C   0  0  0  0  0  0  0  0  0  0  0  0
   63.2920   40.9240   53.0290 C   0  0  0  0  0  0  0  0  0  0  0  0
   63.3370   41.1340   54.3780 C   0  0  0  0  0  0  0  0  0  0  0  0
   63.0720   40.2370   55.5620 C   0  0  2  0  0  0  0  0  0  0  0  0
   61.6350   40.4210   55.9020 C   0  0  0  0  0  0  0  0  0  0  0  0
   60.7250   39.5650   55.0480 C   0  0  0  0  0  0  0  0  0  0  0  0
   59.2040   39.8000   55.2270 C   0  0  1  0  0  0  0  0  0  0  0  0
   58.6820   40.9630   54.3530 C   0  0  2  0  0  0  0  0  0  0  0  0
   57.3100   41.4720   54.7660 C   0  0  1  0  0  0  0  0  0  0  0  0
   57.1560   41.8060   56.2380 C   0  0  0  0  0  0  0  0  0  0  0  0
   56.2790   41.1920   57.0560 C   0  0  0  0  0  0  0  0  0  0  0  0
   56.1910   41.4280   58.5570 C   0  0  1  0  0  0  0  0  0  0  0  0
   54.7080   41.2840   58.9690 C   0  0  0  0  0  0  0  0  0  0  0  0
   54.4610   41.2790   60.4760 C   0  0  2  0  0  0  0  0  0  0  0  0
   55.3410   40.2350   61.1720 C   0  0  1  0  0  0  0  0  0  0  0  0
   56.8290   40.4590   60.8540 C   0  0  0  0  0  0  0  0  0  0  0  0
   57.0850   40.4470   59.3420 C   0  0  0  0  0  0  0  0  0  0  0  0
   58.0200   47.8980   56.1140 C   0  0  0  0  0  0  0  0  0  0  0  0
   62.2720   43.4460   50.2080 C   0  0  0  0  0  0  0  0  0  0  0  0
   63.0140   39.5700   52.3680 C   0  0  0  0  0  0  0  0  0  0  0  0
   63.9130   40.6410   56.7710 C   0  0  0  0  0  0  0  0  0  0  0  0
   65.3780   40.5440   56.4920 C   0  0  0  0  0  0  0  0  0  0  0  0
   66.0830   39.4820   56.8910 C   0  0  0  0  0  0  0  0  0  0  0  0
   58.6570   40.5960   52.8680 C   0  0  0  0  0  0  0  0  0  0  0  0
   57.9900   42.9640   56.7030 C   0  0  0  0  0  0  0  0  0  0  0  0
   61.9020   44.3310   57.1530 C   0  0  0  0  0  0  0  0  0  0  0  0
   64.0190   46.4060   52.4510 C   0  0  0  0  0  0  0  0  0  0  0  0
   52.2620   42.1430   60.8690 C   0  0  0  0  0  0  0  0  0  0  0  0
   56.5430   44.9450   52.4030 N   0  0  0  0  0  0  0  0  0  0  0  0
   56.9590   42.6730   54.0190 O   0  0  0  0  0  0  0  0  0  0  0  0
   54.8360   41.9800   53.7340 O   0  0  0  0  0  0  0  0  0  0  0  0
   55.6410   46.4860   53.8070 O   0  0  0  0  0  0  0  0  0  0  0  0
   57.6620   47.8340   51.7780 O   0  0  0  0  0  0  0  0  0  0  0  0
   59.8070   46.1530   53.2150 O   0  0  0  0  0  0  0  0  0  0  0  0
   59.4630   48.4770   53.6730 O   0  0  0  0  0  0  0  0  0  0  0  0
   61.9870   45.1670   56.0470 O   0  0  0  0  0  0  0  0  0  0  0  0
   63.3190   45.3430   53.0540 O   0  0  0  0  0  0  0  0  0  0  0  0
   61.2270   41.1890   56.7770 O   0  0  0  0  0  0  0  0  0  0  0  0
   58.6420   38.5570   54.7650 O   0  0  0  0  0  0  0  0  0  0  0  0
   53.0860   40.9980   60.7120 O   0  0  0  0  0  0  0  0  0  0  0  0
   55.1390   40.4070   62.5470 O   0  0  0  0  0  0  0  0  0  0  0  0
   54.5930   44.5580   53.1730 H   0  0  0  0  0  0  0  0  0  0  0  0
   54.4720   44.5180   50.8580 H   0  0  0  0  0  0  0  0  0  0  0  0
   53.9770   42.9940   51.4950 H   0  0  0  0  0  0  0  0  0  0  0  0
   55.3840   42.6270   49.5300 H   0  0  0  0  0  0  0  0  0  0  0  0
   56.2790   42.0650   50.9280 H   0  0  0  0  0  0  0  0  0  0  0  0
   56.5450   44.7680   49.5640 H   0  0  0  0  0  0  0  0  0  0  0  0
   57.7290   43.4930   49.5520 H   0  0  0  0  0  0  0  0  0  0  0  0
   58.2850   45.3010   51.1380 H   0  0  0  0  0  0  0  0  0  0  0  0
   58.1820   43.7680   51.9310 H   0  0  0  0  0  0  0  0  0  0  0  0
   57.9830   45.9220   55.2820 H   0  0  0  0  0  0  0  0  0  0  0  0
   59.5880   45.7450   56.9610 H   0  0  0  0  0  0  0  0  0  0  0  0
   60.5070   47.0950   56.3560 H   0  0  0  0  0  0  0  0  0  0  0  0
   60.3190   44.3580   55.0980 H   0  0  0  0  0  0  0  0  0  0  0  0
   61.5340   46.9380   53.9560 H   0  0  0  0  0  0  0  0  0  0  0  0
   61.7300   45.6550   51.7790 H   0  0  0  0  0  0  0  0  0  0  0  0
   60.4100   43.6720   52.5070 H   0  0  0  0  0  0  0  0  0  0  0  0
   61.6180   43.2290   53.6600 H   0  0  0  0  0  0  0  0  0  0  0  0
   61.4510   41.9620   51.4580 H   0  0  0  0  0  0  0  0  0  0  0  0
   64.0830   42.8870   52.5520 H   0  0  0  0  0  0  0  0  0  0  0  0
   64.0540   41.7790   51.2200 H   0  0  0  0  0  0  0  0  0  0  0  0
   63.5250   42.1560   54.6800 H   0  0  0  0  0  0  0  0  0  0  0  0
   63.2580   39.1960   55.2960 H   0  0  0  0  0  0  0  0  0  0  0  0
   60.9580   38.5350   55.3210 H   0  0  0  0  0  0  0  0  0  0  0  0
   61.0030   39.6630   54.0040 H   0  0  0  0  0  0  0  0  0  0  0  0
   58.9660   39.9190   56.2840 H   0  0  0  0  0  0  0  0  0  0  0  0
   59.3790   41.7940   54.4740 H   0  0  0  0  0  0  0  0  0  0  0  0
   56.6100   40.6640   54.5480 H   0  0  0  0  0  0  0  0  0  0  0  0
   55.6300   40.4300   56.6490 H   0  0  0  0  0  0  0  0  0  0  0  0
   56.5770   42.3960   58.8470 H   0  0  0  0  0  0  0  0  0  0  0  0
   54.3510   40.3250   58.5930 H   0  0  0  0  0  0  0  0  0  0  0  0
   54.0710   42.0160   58.4790 H   0  0  0  0  0  0  0  0  0  0  0  0
   54.7140   42.2630   60.8650 H   0  0  0  0  0  0  0  0  0  0  0  0
   55.0380   39.2280   60.8840 H   0  0  0  0  0  0  0  0  0  0  0  0
   57.4340   39.6890   61.3340 H   0  0  0  0  0  0  0  0  0  0  0  0
   57.1480   41.4080   61.2820 H   0  0  0  0  0  0  0  0  0  0  0  0
   58.1370   40.6560   59.1420 H   0  0  0  0  0  0  0  0  0  0  0  0
   56.9080   39.4340   58.9760 H   0  0  0  0  0  0  0  0  0  0  0  0
   57.7640   47.5470   57.1150 H   0  0  0  0  0  0  0  0  0  0  0  0
   58.6830   48.7570   56.2230 H   0  0  0  0  0  0  0  0  0  0  0  0
   57.0990   48.2470   55.6460 H   0  0  0  0  0  0  0  0  0  0  0  0
   62.5430   42.7200   49.4510 H   0  0  0  0  0  0  0  0  0  0  0  0
   61.3190   43.8760   49.9020 H   0  0  0  0  0  0  0  0  0  0  0  0
   63.0230   44.2360   50.2010 H   0  0  0  0  0  0  0  0  0  0  0  0
   63.0470   38.7450   53.0790 H   0  0  0  0  0  0  0  0  0  0  0  0
   62.0320   39.6220   51.9040 H   0  0  0  0  0  0  0  0  0  0  0  0
   63.7290   39.3820   51.5700 H   0  0  0  0  0  0  0  0  0  0  0  0
   63.6730   40.0010   57.6200 H   0  0  0  0  0  0  0  0  0  0  0  0
   63.7190   41.6640   57.0930 H   0  0  0  0  0  0  0  0  0  0  0  0
   65.8480   41.3480   55.9500 H   0  0  0  0  0  0  0  0  0  0  0  0
   67.1400   39.4070   56.6810 H   0  0  0  0  0  0  0  0  0  0  0  0
   65.6190   38.6720   57.4310 H   0  0  0  0  0  0  0  0  0  0  0  0
   58.4300   41.4640   52.2510 H   0  0  0  0  0  0  0  0  0  0  0  0
   59.6140   40.2170   52.5140 H   0  0  0  0  0  0  0  0  0  0  0  0
   57.8990   39.8450   52.6440 H   0  0  0  0  0  0  0  0  0  0  0  0
   57.4380   43.6500   57.3430 H   0  0  0  0  0  0  0  0  0  0  0  0
   58.8520   42.5980   57.2590 H   0  0  0  0  0  0  0  0  0  0  0  0
   58.3600   43.5590   55.8720 H   0  0  0  0  0  0  0  0  0  0  0  0
   62.7950   43.7150   57.2230 H   0  0  0  0  0  0  0  0  0  0  0  0
   61.8360   44.9310   58.0610 H   0  0  0  0  0  0  0  0  0  0  0  0
   61.0340   43.6760   57.1190 H   0  0  0  0  0  0  0  0  0  0  0  0
   65.0440   46.4320   52.8210 H   0  0  0  0  0  0  0  0  0  0  0  0
   64.0540   46.2700   51.3710 H   0  0  0  0  0  0  0  0  0  0  0  0
   63.5520   47.3670   52.6700 H   0  0  0  0  0  0  0  0  0  0  0  0
   51.2270   41.8370   61.0180 H   0  0  0  0  0  0  0  0  0  0  0  0
   52.5680   42.7360   61.7320 H   0  0  0  0  0  0  0  0  0  0  0  0
   52.3020   42.7720   59.9800 H   0  0  0  0  0  0  0  0  0  0  0  0
   59.7280   48.6190   52.7730 H   0  0  0  0  0  0  0  0  0  0  0  0
   57.7210   38.5510   54.9850 H   0  0  0  0  0  0  0  0  0  0  0  0
   54.2100   40.3460   62.7120 H   0  0  0  0  0  0  0  0  0  0  0  0
  1  2  1  0  0  0  0
  1 46  1  0  0  0  0
  1 47  2  0  0  0  0
  2  3  1  0  0  0  0
  2 45  1  0  0  0  0
  2 58  1  1  0  0  0
  3  4  1  0  0  0  0
  3 59  1  0  0  0  0
  3 60  1  0  0  0  0
  4  5  1  0  0  0  0
  4 61  1  0  0  0  0
  4 62  1  0  0  0  0
  5  6  1  0  0  0  0
  5 63  1  0  0  0  0
  5 64  1  0  0  0  0
  6 45  1  0  0  0  0
  6 65  1  0  0  0  0
  6 66  1  0  0  0  0
  7  8  1  0  0  0  0
  7 45  1  0  0  0  0
  7 48  2  0  0  0  0
  8  9  1  0  0  0  0
  8 49  2  0  0  0  0
  9 10  1  0  0  0  0
  9 50  1  0  0  0  0
  9 51  1  6  0  0  0
 10 11  1  0  0  0  0
 10 34  1  0  0  0  0
 10 67  1  6  0  0  0
 11 12  1  0  0  0  0
 11 68  1  0  0  0  0
 11 69  1  0  0  0  0
 12 13  1  0  0  0  0
 12 52  1  0  0  0  0
 12 70  1  6  0  0  0
 13 14  1  0  0  0  0
 13 50  1  0  0  0  0
 13 71  1  1  0  0  0
 14 15  1  0  0  0  0
 14 53  1  0  0  0  0
 14 72  1  6  0  0  0
 15 16  1  0  0  0  0
 15 73  1  0  0  0  0
 15 74  1  0  0  0  0
 16 17  1  0  0  0  0
 16 35  1  0  0  0  0
 16 75  1  6  0  0  0
 17 18  1  0  0  0  0
 17 76  1  0  0  0  0
 17 77  1  0  0  0  0
 18 19  2  0  0  0  0
 18 36  1  0  0  0  0
 19 20  1  0  0  0  0
 19 78  1  0  0  0  0
 20 21  1  0  0  0  0
 20 37  1  0  0  0  0
 20 79  1  6  0  0  0
 21 22  1  0  0  0  0
 21 54  2  0  0  0  0
 22 23  1  0  0  0  0
 22 80  1  0  0  0  0
 22 81  1  0  0  0  0
 23 24  1  0  0  0  0
 23 55  1  0  0  0  0
 23 82  1  1  0  0  0
 24 25  1  0  0  0  0
 24 40  1  0  0  0  0
 24 83  1  1  0  0  0
 25 26  1  0  0  0  0
 25 46  1  0  0  0  0
 25 84  1  6  0  0  0
 26 27  2  0  0  0  0
 26 41  1  0  0  0  0
 27 28  1  0  0  0  0
 27 85  1  0  0  0  0
 28 29  1  0  0  0  0
 28 33  1  0  0  0  0
 28 86  1  1  0  0  0
 29 30  1  0  0  0  0
 29 87  1  0  0  0  0
 29 88  1  0  0  0  0
 30 31  1  0  0  0  0
 30 56  1  0  0  0  0
 30 89  1  1  0  0  0
 31 32  1  0  0  0  0
 31 57  1  0  0  0  0
 31 90  1  6  0  0  0
 32 33  1  0  0  0  0
 32 91  1  0  0  0  0
 32 92  1  0  0  0  0
 33 93  1  0  0  0  0
 33 94  1  0  0  0  0
 34 95  1  0  0  0  0
 34 96  1  0  0  0  0
 34 97  1  0  0  0  0
 35 98  1  0  0  0  0
 35 99  1  0  0  0  0
 35100  1  0  0  0  0
 36101  1  0  0  0  0
 36102  1  0  0  0  0
 36103  1  0  0  0  0
 37 38  1  0  0  0  0
 37104  1  0  0  0  0
 37105  1  0  0  0  0
 38 39  2  0  0  0  0
 38106  1  0  0  0  0
 39107  1  0  0  0  0
 39108  1  0  0  0  0
 40109  1  0  0  0  0
 40110  1  0  0  0  0
 40111  1  0  0  0  0
 41112  1  0  0  0  0
 41113  1  0  0  0  0
 41114  1  0  0  0  0
 42 52  1  0  0  0  0
 42115  1  0  0  0  0
 42116  1  0  0  0  0
 42117  1  0  0  0  0
 43 53  1  0  0  0  0
 43118  1  0  0  0  0
 43119  1  0  0  0  0
 43120  1  0  0  0  0
 44 56  1  0  0  0  0
 44121  1  0  0  0  0
 44122  1  0  0  0  0
 44123  1  0  0  0  0
 51124  1  0  0  0  0
 55125  1  0  0  0  0
 57126  1  0  0  0  0
M  END
>  <COMPND>
    title: molecule 1

$$$$
2FAP_ligand0.pdb
 OpenBabel06042612053D

147150  0  0  1  0  0  0  0  0999 V2000
   -7.0980   26.0170   40.1580 C   0  0  0  0  0  0  0  0  0  0  0  0
   -8.0960   26.6880   39.3660 O   0  0  0  0  0  0  0  0  0  0  0  0
   -5.9430   26.0100   39.7310 O   0  0  0  0  0  0  0  0  0  0  0  0
   -7.4190   25.3670   41.5030 C   0  0  2  0  0  0  0  0  0  0  0  0
   -6.8560   23.9480   41.6020 C   0  0  0  0  0  0  0  0  0  0  0  0
   -7.5930   22.9120   40.7740 C   0  0  0  0  0  0  0  0  0  0  0  0
   -9.0630   22.9230   41.1080 C   0  0  0  0  0  0  0  0  0  0  0  0
   -9.6340   24.3090   40.9130 C   0  0  0  0  0  0  0  0  0  0  0  0
   -8.8560   25.1940   41.7710 N   0  0  0  0  0  0  0  0  0  0  0  0
  -10.8080   25.9700   42.9770 C   0  0  0  0  0  0  0  0  0  0  0  0
   -8.8680   27.0240   43.0710 O   0  0  0  0  0  0  0  0  0  0  0  0
  -11.8860   26.8130   42.2940 C   0  0  1  0  0  0  0  0  0  0  0  0
  -11.1100   25.1640   43.8640 O   0  0  0  0  0  0  0  0  0  0  0  0
  -11.4720   28.3020   42.2830 C   0  0  1  0  0  0  0  0  0  0  0  0
  -11.9340   26.3340   40.9720 O   0  0  0  0  0  0  0  0  0  0  0  0
  -13.1520   26.6710   42.9550 O   0  0  0  0  0  0  0  0  0  0  0  0
  -12.4110   29.1000   41.3710 C   0  0  0  0  0  0  0  0  0  0  0  0
  -12.7740   28.3970   40.0670 C   0  0  0  0  0  0  0  0  0  0  0  0
  -12.9500   26.8790   40.1990 C   0  0  1  0  0  0  0  0  0  0  0  0
  -12.8160   26.2080   38.8350 C   0  0  0  0  0  0  0  0  0  0  0  0
  -13.9030   26.5210   37.8060 C   0  0  1  0  0  0  0  0  0  0  0  0
  -13.6070   25.7150   36.5590 C   0  0  0  0  0  0  0  0  0  0  0  0
  -15.1440   26.1400   38.2730 O   0  0  0  0  0  0  0  0  0  0  0  0
  -13.2630   26.3140   35.4310 C   0  0  0  0  0  0  0  0  0  0  0  0
  -12.9050   25.6380   34.1880 C   0  0  0  0  0  0  0  0  0  0  0  0
  -12.7960   26.3350   33.0710 C   0  0  0  0  0  0  0  0  0  0  0  0
  -12.4310   25.6940   31.8150 C   0  0  0  0  0  0  0  0  0  0  0  0
  -11.6610   26.2860   30.9330 C   0  0  0  0  0  0  0  0  0  0  0  0
  -11.2790   25.6150   29.6380 C   0  0  2  0  0  0  0  0  0  0  0  0
   -9.7700   25.6930   29.4070 C   0  0  0  0  0  0  0  0  0  0  0  0
   -8.8780   25.3330   30.5970 C   0  0  2  0  0  0  0  0  0  0  0  0
   -7.5660   26.0830   30.4900 C   0  0  0  0  0  0  0  0  0  0  0  0
   -7.4620   27.4730   31.1070 C   0  0  1  0  0  0  0  0  0  0  0  0
   -6.6250   25.6030   29.8700 O   0  0  0  0  0  0  0  0  0  0  0  0
   -7.1090   27.3800   32.6060 C   0  0  1  0  0  0  0  0  0  0  0  0
   -6.4170   28.0850   30.4260 O   0  0  0  0  0  0  0  0  0  0  0  0
   -8.2450   26.9410   33.5090 C   0  0  0  0  0  0  0  0  0  0  0  0
   -6.0370   26.4520   32.7940 O   0  0  0  0  0  0  0  0  0  0  0  0
   -8.3280   25.7640   34.1230 C   0  0  0  0  0  0  0  0  0  0  0  0
   -9.4060   25.4160   35.1210 C   0  0  2  0  0  0  0  0  0  0  0  0
   -8.8710   25.6300   36.5370 C   0  0  0  0  0  0  0  0  0  0  0  0
   -8.9910   27.0070   37.1650 C   0  0  0  0  0  0  0  0  0  0  0  0
   -8.3510   24.7060   37.1630 O   0  0  0  0  0  0  0  0  0  0  0  0
   -7.8500   27.3110   38.1400 C   0  0  1  0  0  0  0  0  0  0  0  0
   -7.7540   28.8310   38.4070 C   0  0  1  0  0  0  0  0  0  0  0  0
   -7.1860   29.5440   37.1830 C   0  0  0  0  0  0  0  0  0  0  0  0
   -5.8780   29.0160   36.5940 C   0  0  1  0  0  0  0  0  0  0  0  0
   -5.5860   29.7930   35.3080 C   0  0  0  0  0  0  0  0  0  0  0  0
   -4.1960   29.7120   34.6590 C   0  0  2  0  0  0  0  0  0  0  0  0
   -3.0530   29.7770   35.7220 C   0  0  1  0  0  0  0  0  0  0  0  0
   -4.0980   30.8380   33.8450 O   0  0  0  0  0  0  0  0  0  0  0  0
   -3.3670   28.9110   36.9460 C   0  0  0  0  0  0  0  0  0  0  0  0
   -1.8290   29.2960   35.1550 O   0  0  0  0  0  0  0  0  0  0  0  0
   -4.7180   29.1870   37.5710 C   0  0  0  0  0  0  0  0  0  0  0  0
  -11.5170   28.8810   43.6940 C   0  0  0  0  0  0  0  0  0  0  0  0
  -13.7220   24.1980   36.7870 C   0  0  0  0  0  0  0  0  0  0  0  0
  -12.0290   26.3000   28.5100 C   0  0  0  0  0  0  0  0  0  0  0  0
   -8.6260   23.8380   30.6450 C   0  0  0  0  0  0  0  0  0  0  0  0
   -9.2910   28.0250   33.6010 C   0  0  0  0  0  0  0  0  0  0  0  0
   -9.8210   23.9680   34.9180 C   0  0  0  0  0  0  0  0  0  0  0  0
   -9.1250   29.4020   38.7480 C   0  0  0  0  0  0  0  0  0  0  0  0
  -16.2630   26.9180   38.0160 C   0  0  0  0  0  0  0  0  0  0  0  0
   -6.7660   29.0390   29.4900 C   0  0  0  0  0  0  0  0  0  0  0  0
   -4.9450   30.9310   32.7390 C   0  0  0  0  0  0  0  0  0  0  0  0
  -17.3150   25.8440   38.0100 C   0  0  0  0  0  0  0  0  0  0  0  0
   -9.4710   26.0700   42.5850 C   0  0  0  0  0  0  0  0  0  0  0  0
   -6.9060   25.9450   42.2740 H   0  0  0  0  0  0  0  0  0  0  0  0
   -6.9320   23.6600   42.6470 H   0  0  0  0  0  0  0  0  0  0  0  0
   -5.7920   23.9310   41.3640 H   0  0  0  0  0  0  0  0  0  0  0  0
   -7.1770   21.9220   40.9410 H   0  0  0  0  0  0  0  0  0  0  0  0
   -7.4560   23.1190   39.7120 H   0  0  0  0  0  0  0  0  0  0  0  0
   -9.2170   22.5920   42.1370 H   0  0  0  0  0  0  0  0  0  0  0  0
   -9.5910   22.2100   40.4740 H   0  0  0  0  0  0  0  0  0  0  0  0
  -10.6990   24.2350   41.1250 H   0  0  0  0  0  0  0  0  0  0  0  0
   -9.5600   24.6110   39.8680 H   0  0  0  0  0  0  0  0  0  0  0  0
  -10.4800   28.4200   41.8500 H   0  0  0  0  0  0  0  0  0  0  0  0
  -13.3820   25.7490   42.9340 H   0  0  0  0  0  0  0  0  0  0  0  0
  -11.9970   30.0880   41.1650 H   0  0  0  0  0  0  0  0  0  0  0  0
  -13.3450   29.2780   41.9070 H   0  0  0  0  0  0  0  0  0  0  0  0
  -11.9650   28.5930   39.3630 H   0  0  0  0  0  0  0  0  0  0  0  0
  -13.6660   28.8500   39.6340 H   0  0  0  0  0  0  0  0  0  0  0  0
  -13.9300   26.6400   40.6150 H   0  0  0  0  0  0  0  0  0  0  0  0
  -12.8010   25.1370   39.0330 H   0  0  0  0  0  0  0  0  0  0  0  0
  -11.8390   26.4370   38.4120 H   0  0  0  0  0  0  0  0  0  0  0  0
  -13.8900   27.5900   37.5870 H   0  0  0  0  0  0  0  0  0  0  0  0
  -13.2170   27.3920   35.4320 H   0  0  0  0  0  0  0  0  0  0  0  0
  -12.7180   24.5740   34.1740 H   0  0  0  0  0  0  0  0  0  0  0  0
  -12.9730   27.4020   33.0810 H   0  0  0  0  0  0  0  0  0  0  0  0
  -12.8290   24.7440   31.5840 H   0  0  0  0  0  0  0  0  0  0  0  0
  -11.2610   27.2670   31.1200 H   0  0  0  0  0  0  0  0  0  0  0  0
  -11.5730   24.5640   29.6710 H   0  0  0  0  0  0  0  0  0  0  0  0
   -9.5500   26.7150   29.0920 H   0  0  0  0  0  0  0  0  0  0  0  0
   -9.5060   25.0820   28.5420 H   0  0  0  0  0  0  0  0  0  0  0  0
   -9.3420   25.6380   31.5310 H   0  0  0  0  0  0  0  0  0  0  0  0
   -8.3890   28.0190   30.9780 H   0  0  0  0  0  0  0  0  0  0  0  0
   -6.7500   28.3520   32.9260 H   0  0  0  0  0  0  0  0  0  0  0  0
   -5.8640   26.3690   33.7220 H   0  0  0  0  0  0  0  0  0  0  0  0
   -7.5580   25.0150   34.0040 H   0  0  0  0  0  0  0  0  0  0  0  0
  -10.2930   26.0290   34.9950 H   0  0  0  0  0  0  0  0  0  0  0  0
   -9.9560   27.0860   37.6600 H   0  0  0  0  0  0  0  0  0  0  0  0
   -8.9990   27.7200   36.3470 H   0  0  0  0  0  0  0  0  0  0  0  0
   -6.9170   26.9210   37.7410 H   0  0  0  0  0  0  0  0  0  0  0  0
   -7.0540   29.0030   39.2180 H   0  0  0  0  0  0  0  0  0  0  0  0
   -7.0830   30.6040   37.4170 H   0  0  0  0  0  0  0  0  0  0  0  0
   -7.9260   29.4920   36.3890 H   0  0  0  0  0  0  0  0  0  0  0  0
   -5.9580   27.9710   36.3040 H   0  0  0  0  0  0  0  0  0  0  0  0
   -5.7420   30.8470   35.5480 H   0  0  0  0  0  0  0  0  0  0  0  0
   -6.3650   29.5620   34.5890 H   0  0  0  0  0  0  0  0  0  0  0  0
   -4.1160   28.7910   34.0780 H   0  0  0  0  0  0  0  0  0  0  0  0
   -2.9120   30.8080   36.0490 H   0  0  0  0  0  0  0  0  0  0  0  0
   -2.5820   29.0270   37.6930 H   0  0  0  0  0  0  0  0  0  0  0  0
   -3.3490   27.8690   36.6300 H   0  0  0  0  0  0  0  0  0  0  0  0
   -1.9800   28.4390   34.7750 H   0  0  0  0  0  0  0  0  0  0  0  0
   -4.8570   28.5180   38.4200 H   0  0  0  0  0  0  0  0  0  0  0  0
   -4.7180   30.2000   37.9760 H   0  0  0  0  0  0  0  0  0  0  0  0
  -11.2380   29.9350   43.6760 H   0  0  0  0  0  0  0  0  0  0  0  0
  -12.5060   28.8220   44.1490 H   0  0  0  0  0  0  0  0  0  0  0  0
  -10.8150   28.3900   44.3660 H   0  0  0  0  0  0  0  0  0  0  0  0
  -13.8570   23.6720   35.8450 H   0  0  0  0  0  0  0  0  0  0  0  0
  -12.8180   23.8030   37.2500 H   0  0  0  0  0  0  0  0  0  0  0  0
  -14.5740   23.9350   37.4130 H   0  0  0  0  0  0  0  0  0  0  0  0
  -11.7370   25.9000   27.5400 H   0  0  0  0  0  0  0  0  0  0  0  0
  -13.1060   26.1630   28.6130 H   0  0  0  0  0  0  0  0  0  0  0  0
  -11.8290   27.3700   28.4950 H   0  0  0  0  0  0  0  0  0  0  0  0
   -7.9490   23.5740   31.4590 H   0  0  0  0  0  0  0  0  0  0  0  0
   -9.5570   23.2980   30.8170 H   0  0  0  0  0  0  0  0  0  0  0  0
   -8.1960   23.4570   29.7180 H   0  0  0  0  0  0  0  0  0  0  0  0
  -10.0250   27.9040   34.3920 H   0  0  0  0  0  0  0  0  0  0  0  0
   -8.8170   28.9910   33.7740 H   0  0  0  0  0  0  0  0  0  0  0  0
   -9.8380   28.0890   32.6650 H   0  0  0  0  0  0  0  0  0  0  0  0
  -10.5870   23.6710   35.6350 H   0  0  0  0  0  0  0  0  0  0  0  0
  -10.2420   23.8240   33.9220 H   0  0  0  0  0  0  0  0  0  0  0  0
   -8.9830   23.2760   35.0170 H   0  0  0  0  0  0  0  0  0  0  0  0
   -9.0500   30.4620   38.9910 H   0  0  0  0  0  0  0  0  0  0  0  0
   -9.8360   29.3040   37.9330 H   0  0  0  0  0  0  0  0  0  0  0  0
   -9.5530   28.9070   39.6190 H   0  0  0  0  0  0  0  0  0  0  0  0
  -16.2080   27.4020   37.0390 H   0  0  0  0  0  0  0  0  0  0  0  0
  -16.4180   27.6720   38.7880 H   0  0  0  0  0  0  0  0  0  0  0  0
   -5.8690   29.4290   29.0100 H   0  0  0  0  0  0  0  0  0  0  0  0
   -7.4100   28.6190   28.7150 H   0  0  0  0  0  0  0  0  0  0  0  0
   -7.2790   29.8700   29.9690 H   0  0  0  0  0  0  0  0  0  0  0  0
   -4.6250   31.7630   32.1120 H   0  0  0  0  0  0  0  0  0  0  0  0
   -4.9060   30.0260   32.1320 H   0  0  0  0  0  0  0  0  0  0  0  0
   -5.9810   31.1240   33.0190 H   0  0  0  0  0  0  0  0  0  0  0  0
  -18.2720   26.2690   37.7270 H   0  0  0  0  0  0  0  0  0  0  0  0
  -17.0870   25.0490   37.2990 H   0  0  0  0  0  0  0  0  0  0  0  0
  -17.4600   25.4060   38.9930 H   0  0  0  0  0  0  0  0  0  0  0  0
  1  2  1  0  0  0  0
  1  3  2  0  0  0  0
  1  4  1  0  0  0  0
  2 44  1  0  0  0  0
  4  5  1  0  0  0  0
  4  9  1  0  0  0  0
  4 67  1  1  0  0  0
  5  6  1  0  0  0  0
  5 68  1  0  0  0  0
  5 69  1  0  0  0  0
  6  7  1  0  0  0  0
  6 70  1  0  0  0  0
  6 71  1  0  0  0  0
  7  8  1  0  0  0  0
  7 72  1  0  0  0  0
  7 73  1  0  0  0  0
  8  9  1  0  0  0  0
  8 74  1  0  0  0  0
  8 75  1  0  0  0  0
  9 66  1  0  0  0  0
 10 12  1  0  0  0  0
 10 13  2  0  0  0  0
 10 66  1  0  0  0  0
 11 66  2  0  0  0  0
 12 14  1  0  0  0  0
 12 15  1  0  0  0  0
 12 16  1  1  0  0  0
 14 17  1  0  0  0  0
 14 55  1  0  0  0  0
 14 76  1  6  0  0  0
 15 19  1  0  0  0  0
 16 77  1  0  0  0  0
 17 18  1  0  0  0  0
 17 78  1  0  0  0  0
 17 79  1  0  0  0  0
 18 19  1  0  0  0  0
 18 80  1  0  0  0  0
 18 81  1  0  0  0  0
 19 20  1  0  0  0  0
 19 82  1  1  0  0  0
 20 21  1  0  0  0  0
 20 83  1  0  0  0  0
 20 84  1  0  0  0  0
 21 22  1  0  0  0  0
 21 23  1  0  0  0  0
 21 85  1  6  0  0  0
 22 24  2  0  0  0  0
 22 56  1  0  0  0  0
 23 62  1  0  0  0  0
 24 25  1  0  0  0  0
 24 86  1  0  0  0  0
 25 26  2  0  0  0  0
 25 87  1  0  0  0  0
 26 27  1  0  0  0  0
 26 88  1  0  0  0  0
 27 28  2  0  0  0  0
 27 89  1  0  0  0  0
 28 29  1  0  0  0  0
 28 90  1  0  0  0  0
 29 30  1  0  0  0  0
 29 57  1  0  0  0  0
 29 91  1  1  0  0  0
 30 31  1  0  0  0  0
 30 92  1  0  0  0  0
 30 93  1  0  0  0  0
 31 32  1  0  0  0  0
 31 58  1  0  0  0  0
 31 94  1  1  0  0  0
 32 33  1  0  0  0  0
 32 34  2  0  0  0  0
 33 35  1  0  0  0  0
 33 36  1  0  0  0  0
 33 95  1  6  0  0  0
 35 37  1  0  0  0  0
 35 38  1  0  0  0  0
 35 96  1  1  0  0  0
 36 63  1  0  0  0  0
 37 39  2  0  0  0  0
 37 59  1  0  0  0  0
 38 97  1  0  0  0  0
 39 40  1  0  0  0  0
 39 98  1  0  0  0  0
 40 41  1  0  0  0  0
 40 60  1  0  0  0  0
 40 99  1  6  0  0  0
 41 42  1  0  0  0  0
 41 43  2  0  0  0  0
 42 44  1  0  0  0  0
 42100  1  0  0  0  0
 42101  1  0  0  0  0
 44 45  1  0  0  0  0
 44102  1  6  0  0  0
 45 46  1  0  0  0  0
 45 61  1  0  0  0  0
 45103  1  1  0  0  0
 46 47  1  0  0  0  0
 46104  1  0  0  0  0
 46105  1  0  0  0  0
 47 48  1  0  0  0  0
 47 54  1  0  0  0  0
 47106  1  6  0  0  0
 48 49  1  0  0  0  0
 48107  1  0  0  0  0
 48108  1  0  0  0  0
 49 50  1  0  0  0  0
 49 51  1  0  0  0  0
 49109  1  6  0  0  0
 50 52  1  0  0  0  0
 50 53  1  0  0  0  0
 50110  1  1  0  0  0
 51 64  1  0  0  0  0
 52 54  1  0  0  0  0
 52111  1  0  0  0  0
 52112  1  0  0  0  0
 53113  1  0  0  0  0
 54114  1  0  0  0  0
 54115  1  0  0  0  0
 55116  1  0  0  0  0
 55117  1  0  0  0  0
 55118  1  0  0  0  0
 56119  1  0  0  0  0
 56120  1  0  0  0  0
 56121  1  0  0  0  0
 57122  1  0  0  0  0
 57123  1  0  0  0  0
 57124  1  0  0  0  0
 58125  1  0  0  0  0
 58126  1  0  0  0  0
 58127  1  0  0  0  0
 59128  1  0  0  0  0
 59129  1  0  0  0  0
 59130  1  0  0  0  0
 60131  1  0  0  0  0
 60132  1  0  0  0  0
 60133  1  0  0  0  0
 61134  1  0  0  0  0
 61135  1  0  0  0  0
 61136  1  0  0  0  0
 62 65  1  0  0  0  0
 62137  1  0  0  0  0
 62138  1  0  0  0  0
 63139  1  0  0  0  0
 63140  1  0  0  0  0
 63141  1  0  0  0  0
 64142  1  0  0  0  0
 64143  1  0  0  0  0
 64144  1  0  0  0  0
 65145  1  0  0  0  0
 65146  1  0  0  0  0
 65147  1  0  0  0  0
M  END
>  <COMPND>
    title: molecule 1

$$$$
2O98_ligand0.pdb
 OpenBabel06042612053D

104107  0  0  1  0  0  0  0  0999 V2000
    5.4200   84.1480  120.5110 C   0  0  0  0  0  0  0  0  0  0  0  0
    4.0870   84.1870  120.2830 C   0  0  0  0  0  0  0  0  0  0  0  0
    3.0490   84.7990  121.1950 C   0  0  2  0  0  0  0  0  0  0  0  0
    2.1420   83.7030  121.7610 C   0  0  0  0  0  0  0  0  0  0  0  0
    2.1960   85.8550  120.4940 C   0  0  0  0  0  0  0  0  0  0  0  0
    1.5460   86.6490  121.5040 O   0  0  0  0  0  0  0  0  0  0  0  0
    0.4840   87.5860  121.1910 C   0  0  0  0  0  0  0  0  0  0  0  0
    0.2040   87.7540  120.0060 O   0  0  0  0  0  0  0  0  0  0  0  0
   -0.2320   88.2910  122.3000 C   0  0  0  0  0  0  0  0  0  0  0  0
    3.7040   83.5040  118.9810 C   0  0  0  0  0  0  0  0  0  0  0  0
    5.0770   83.4230  118.3240 C   0  0  2  0  0  0  0  0  0  0  0  0
    5.2610   82.3270  117.4270 O   0  0  0  0  0  0  0  0  0  0  0  0
    6.1080   83.3750  119.4320 C   0  0  1  0  0  0  0  0  0  0  0  0
    7.3370   84.1150  118.9440 C   0  0  0  0  0  0  0  0  0  0  0  0
    6.4340   81.9260  119.7850 C   0  0  0  0  0  0  0  0  0  0  0  0
    6.3060   81.2240  120.9500 C   0  0  0  0  0  0  0  0  0  0  0  0
    6.7320   79.7760  121.0540 C   0  0  1  0  0  0  0  0  0  0  0  0
    8.2040   79.5120  120.7370 C   0  0  0  0  0  0  0  0  0  0  0  0
    8.4890   78.1040  120.6190 O   0  0  0  0  0  0  0  0  0  0  0  0
    9.8750   77.8370  120.4290 C   0  0  0  0  0  0  0  0  0  0  0  0
    6.4350   79.3550  122.4860 C   0  0  0  0  0  0  0  0  0  0  0  0
    5.4920   80.4120  123.0440 C   0  0  0  0  0  0  0  0  0  0  0  0
    5.7170   81.7030  122.2520 C   0  0  1  0  0  0  0  0  0  0  0  0
    6.5700   82.7150  123.0580 C   0  0  1  0  0  0  0  0  0  0  0  0
    8.0790   82.7610  122.7500 C   0  0  0  0  0  0  0  0  0  0  0  0
    5.9960   84.1170  122.9690 C   0  0  1  0  0  0  0  0  0  0  0  0
    6.6210   84.9070  123.9840 O   0  0  0  0  0  0  0  0  0  0  0  0
    6.2260   84.7960  121.6290 C   0  0  2  0  0  0  0  0  0  0  0  0
    5.9020   86.1930  121.7730 O   0  0  0  0  0  0  0  0  0  0  0  0
    6.8370   87.2300  121.3900 C   0  0  1  0  0  0  0  0  0  0  0  0
    6.9500   87.4100  119.9640 O   0  0  0  0  0  0  0  0  0  0  0  0
    5.7400   87.7220  119.2710 C   0  0  1  0  0  0  0  0  0  0  0  0
    5.0930   88.9920  119.8010 C   0  0  1  0  0  0  0  0  0  0  0  0
    3.7750   89.1050  119.2160 O   0  0  0  0  0  0  0  0  0  0  0  0
    5.0140   89.0010  121.3310 C   0  0  2  0  0  0  0  0  0  0  0  0
    4.6980   90.3410  121.7110 O   0  0  0  0  0  0  0  0  0  0  0  0
    4.1510   90.6710  123.0430 C   0  0  0  0  0  0  0  0  0  0  0  0
    2.9350   90.5890  123.2150 O   0  0  0  0  0  0  0  0  0  0  0  0
    5.0890   91.1430  124.1520 C   0  0  0  0  0  0  0  0  0  0  0  0
    6.3360   88.5570  121.9650 C   0  0  1  0  0  0  0  0  0  0  0  0
    6.1250   88.4140  123.3680 O   0  0  0  0  0  0  0  0  0  0  0  0
    6.0400   87.8800  117.7890 C   0  0  0  0  0  0  0  0  0  0  0  0
    7.1800   88.7380  117.6610 O   0  0  0  0  0  0  0  0  0  0  0  0
    7.9110   88.7820  116.4010 C   0  0  0  0  0  0  0  0  0  0  0  0
    7.9000   87.4770  115.6280 C   0  0  0  0  0  0  0  0  0  0  0  0
    9.3640   89.1590  116.7330 C   0  0  0  0  0  0  0  0  0  0  0  0
    7.3490   89.8490  115.4780 C   0  0  0  0  0  0  0  0  0  0  0  0
    6.2420   89.6620  114.7810 C   0  0  0  0  0  0  0  0  0  0  0  0
    3.5640   85.2880  122.0170 H   0  0  0  0  0  0  0  0  0  0  0  0
    1.4780   84.1010  122.5300 H   0  0  0  0  0  0  0  0  0  0  0  0
    1.5140   83.2670  120.9880 H   0  0  0  0  0  0  0  0  0  0  0  0
    2.7130   82.9000  122.2160 H   0  0  0  0  0  0  0  0  0  0  0  0
    1.4600   85.3930  119.8340 H   0  0  0  0  0  0  0  0  0  0  0  0
    2.8180   86.5110  119.8850 H   0  0  0  0  0  0  0  0  0  0  0  0
   -0.5240   89.2960  121.9970 H   0  0  0  0  0  0  0  0  0  0  0  0
   -1.1250   87.7370  122.5880 H   0  0  0  0  0  0  0  0  0  0  0  0
    0.4270   88.3690  123.1630 H   0  0  0  0  0  0  0  0  0  0  0  0
    3.0400   84.1900  118.4910 H   0  0  0  0  0  0  0  0  0  0  0  0
    3.2410   82.5350  119.1610 H   0  0  0  0  0  0  0  0  0  0  0  0
    5.2030   84.3380  117.7400 H   0  0  0  0  0  0  0  0  0  0  0  0
    6.1880   82.1720  117.2840 H   0  0  0  0  0  0  0  0  0  0  0  0
    7.6790   83.7100  117.9920 H   0  0  0  0  0  0  0  0  0  0  0  0
    7.1590   85.1780  118.7930 H   0  0  0  0  0  0  0  0  0  0  0  0
    8.1810   84.0030  119.6220 H   0  0  0  0  0  0  0  0  0  0  0  0
    6.9020   81.3760  118.9910 H   0  0  0  0  0  0  0  0  0  0  0  0
    6.0980   79.2100  120.3700 H   0  0  0  0  0  0  0  0  0  0  0  0
    8.8390   79.9560  121.5020 H   0  0  0  0  0  0  0  0  0  0  0  0
    8.4810   79.9840  119.7940 H   0  0  0  0  0  0  0  0  0  0  0  0
   10.0140   76.7610  120.3270 H   0  0  0  0  0  0  0  0  0  0  0  0
   10.2540   78.3220  119.5290 H   0  0  0  0  0  0  0  0  0  0  0  0
   10.4570   78.1700  121.2870 H   0  0  0  0  0  0  0  0  0  0  0  0
    7.3470   79.3970  123.0840 H   0  0  0  0  0  0  0  0  0  0  0  0
    6.0340   78.3990  122.6670 H   0  0  0  0  0  0  0  0  0  0  0  0
    5.5810   80.5140  124.1250 H   0  0  0  0  0  0  0  0  0  0  0  0
    4.4700   80.0750  122.8620 H   0  0  0  0  0  0  0  0  0  0  0  0
    4.7310   82.1120  122.0570 H   0  0  0  0  0  0  0  0  0  0  0  0
    6.4890   82.4480  124.1120 H   0  0  0  0  0  0  0  0  0  0  0  0
    8.6200   83.4570  123.3830 H   0  0  0  0  0  0  0  0  0  0  0  0
    8.5130   81.7850  122.9630 H   0  0  0  0  0  0  0  0  0  0  0  0
    8.3200   82.9730  121.7110 H   0  0  0  0  0  0  0  0  0  0  0  0
    4.9380   84.0880  123.2260 H   0  0  0  0  0  0  0  0  0  0  0  0
    6.0200   85.5970  124.2480 H   0  0  0  0  0  0  0  0  0  0  0  0
    7.2850   84.7930  121.3990 H   0  0  0  0  0  0  0  0  0  0  0  0
    7.8100   86.9930  121.8100 H   0  0  0  0  0  0  0  0  0  0  0  0
    5.0500   86.8880  119.4010 H   0  0  0  0  0  0  0  0  0  0  0  0
    5.6870   89.8500  119.4810 H   0  0  0  0  0  0  0  0  0  0  0  0
    3.3770   89.9020  119.5320 H   0  0  0  0  0  0  0  0  0  0  0  0
    4.2150   88.3290  121.6500 H   0  0  0  0  0  0  0  0  0  0  0  0
    5.0770   90.4360  124.9800 H   0  0  0  0  0  0  0  0  0  0  0  0
    6.1140   91.2080  123.7920 H   0  0  0  0  0  0  0  0  0  0  0  0
    4.7820   92.1210  124.5220 H   0  0  0  0  0  0  0  0  0  0  0  0
    7.1060   89.3100  121.7930 H   0  0  0  0  0  0  0  0  0  0  0  0
    5.5280   87.6960  123.5360 H   0  0  0  0  0  0  0  0  0  0  0  0
    5.1930   88.2580  117.2160 H   0  0  0  0  0  0  0  0  0  0  0  0
    6.2520   86.8780  117.4220 H   0  0  0  0  0  0  0  0  0  0  0  0
    8.4960   87.5470  114.7170 H   0  0  0  0  0  0  0  0  0  0  0  0
    8.3360   86.6750  116.2260 H   0  0  0  0  0  0  0  0  0  0  0  0
    6.9020   87.1700  115.3270 H   0  0  0  0  0  0  0  0  0  0  0  0
    9.9510   89.2710  115.8220 H   0  0  0  0  0  0  0  0  0  0  0  0
    9.4230   90.1090  117.2640 H   0  0  0  0  0  0  0  0  0  0  0  0
    9.8560   88.3860  117.3230 H   0  0  0  0  0  0  0  0  0  0  0  0
    7.8980   90.7770  115.3730 H   0  0  0  0  0  0  0  0  0  0  0  0
    5.8950   90.4300  114.1010 H   0  0  0  0  0  0  0  0  0  0  0  0
    5.6380   88.7690  114.8500 H   0  0  0  0  0  0  0  0  0  0  0  0
  1  2  2  0  0  0  0
  1 13  1  0  0  0  0
  1 28  1  0  0  0  0
  2  3  1  0  0  0  0
  2 10  1  0  0  0  0
  3  4  1  0  0  0  0
  3  5  1  0  0  0  0
  3 49  1  1  0  0  0
  4 50  1  0  0  0  0
  4 51  1  0  0  0  0
  4 52  1  0  0  0  0
  5  6  1  0  0  0  0
  5 53  1  0  0  0  0
  5 54  1  0  0  0  0
  6  7  1  0  0  0  0
  7  8  2  0  0  0  0
  7  9  1  0  0  0  0
  9 55  1  0  0  0  0
  9 56  1  0  0  0  0
  9 57  1  0  0  0  0
 10 11  1  0  0  0  0
 10 58  1  0  0  0  0
 10 59  1  0  0  0  0
 11 12  1  0  0  0  0
 11 13  1  0  0  0  0
 11 60  1  6  0  0  0
 12 61  1  0  0  0  0
 13 14  1  6  0  0  0
 13 15  1  0  0  0  0
 14 62  1  0  0  0  0
 14 63  1  0  0  0  0
 14 64  1  0  0  0  0
 15 16  2  0  0  0  0
 15 65  1  0  0  0  0
 16 17  1  0  0  0  0
 16 23  1  0  0  0  0
 17 18  1  0  0  0  0
 17 21  1  0  0  0  0
 17 66  1  6  0  0  0
 18 19  1  0  0  0  0
 18 67  1  0  0  0  0
 18 68  1  0  0  0  0
 19 20  1  0  0  0  0
 20 69  1  0  0  0  0
 20 70  1  0  0  0  0
 20 71  1  0  0  0  0
 21 22  1  0  0  0  0
 21 72  1  0  0  0  0
 21 73  1  0  0  0  0
 22 23  1  0  0  0  0
 22 74  1  0  0  0  0
 22 75  1  0  0  0  0
 23 24  1  0  0  0  0
 23 76  1  6  0  0  0
 24 25  1  0  0  0  0
 24 26  1  0  0  0  0
 24 77  1  1  0  0  0
 25 78  1  0  0  0  0
 25 79  1  0  0  0  0
 25 80  1  0  0  0  0
 26 27  1  0  0  0  0
 26 28  1  0  0  0  0
 26 81  1  1  0  0  0
 27 82  1  0  0  0  0
 28 29  1  0  0  0  0
 28 83  1  6  0  0  0
 29 30  1  0  0  0  0
 30 31  1  0  0  0  0
 30 40  1  0  0  0  0
 30 84  1  1  0  0  0
 31 32  1  0  0  0  0
 32 33  1  0  0  0  0
 32 42  1  0  0  0  0
 32 85  1  1  0  0  0
 33 34  1  0  0  0  0
 33 35  1  0  0  0  0
 33 86  1  6  0  0  0
 34 87  1  0  0  0  0
 35 36  1  0  0  0  0
 35 40  1  0  0  0  0
 35 88  1  1  0  0  0
 36 37  1  0  0  0  0
 37 38  2  0  0  0  0
 37 39  1  0  0  0  0
 39 89  1  0  0  0  0
 39 90  1  0  0  0  0
 39 91  1  0  0  0  0
 40 41  1  0  0  0  0
 40 92  1  6  0  0  0
 41 93  1  0  0  0  0
 42 43  1  0  0  0  0
 42 94  1  0  0  0  0
 42 95  1  0  0  0  0
 43 44  1  0  0  0  0
 44 45  1  0  0  0  0
 44 46  1  0  0  0  0
 44 47  1  0  0  0  0
 45 96  1  0  0  0  0
 45 97  1  0  0  0  0
 45 98  1  0  0  0  0
 46 99  1  0  0  0  0
 46100  1  0  0  0  0
 46101  1  0  0  0  0
 47 48  2  0  0  0  0
 47102  1  0  0  0  0
 48103  1  0  0  0  0
 48104  1  0  0  0  0
M  END
>  <COMPND>
    title: molecule 1

$$$$
2OVM_ligand0.pdb
 OpenBabel06042612053D

 68 72  0  0  1  0  0  0  0  0999 V2000
  -33.4180   47.6080   41.6690 C   0  0  0  0  0  0  0  0  0  0  0  0
  -33.0600   49.9200   41.8900 C   0  0  0  0  0  0  0  0  0  0  0  0
  -32.0560   51.0970   41.7890 C   0  0  2  0  0  0  0  0  0  0  0  0
  -31.3620   51.1380   40.4150 C   0  0  0  0  0  0  0  0  0  0  0  0
  -29.8890   50.6530   40.6100 C   0  0  0  0  0  0  0  0  0  0  0  0
  -32.5050   48.6560   41.5440 O   0  0  0  0  0  0  0  0  0  0  0  0
  -29.6840   50.3130   42.1200 C   0  0  1  0  0  0  0  0  0  0  0  0
  -28.3380   50.5370   42.9640 C   0  0  2  0  0  0  0  0  0  0  0  0
  -27.2770   49.6880   42.2150 C   0  0  0  0  0  0  0  0  0  0  0  0
  -25.9080   49.7930   42.9500 C   0  0  0  0  0  0  0  0  0  0  0  0
  -25.9680   49.3150   44.4030 C   0  0  0  0  0  0  0  0  0  0  0  0
  -24.8680   48.7590   44.9700 C   0  0  0  0  0  0  0  0  0  0  0  0
  -24.8670   48.2620   46.3860 C   0  0  0  0  0  0  0  0  0  0  0  0
  -23.8210   48.0380   46.9990 O   0  0  0  0  0  0  0  0  0  0  0  0
  -26.2390   48.0250   47.0210 C   0  0  0  0  0  0  0  0  0  0  0  0
  -27.3430   49.0420   46.5730 C   0  0  0  0  0  0  0  0  0  0  0  0
  -27.2920   49.5120   45.1040 C   0  0  0  0  0  0  0  0  0  0  0  0
  -28.4330   50.1040   44.4530 C   0  0  0  0  0  0  0  0  0  0  0  0
  -29.7790   50.4440   45.1700 C   0  0  2  0  0  0  0  0  0  0  0  0
  -31.0570   50.4320   44.2450 C   0  0  0  0  0  0  0  0  0  0  0  0
  -30.8540   51.0520   42.8050 C   0  0  2  0  0  0  0  0  0  0  0  0
  -30.5080   52.5630   43.0120 C   0  0  0  0  0  0  0  0  0  0  0  0
  -29.7060   51.8020   45.9420 C   0  0  0  0  0  0  0  0  0  0  0  0
  -28.4970   52.5840   45.9290 C   0  0  0  0  0  0  0  0  0  0  0  0
  -28.4020   53.7950   46.6450 C   0  0  0  0  0  0  0  0  0  0  0  0
  -29.5070   54.2390   47.4110 C   0  0  0  0  0  0  0  0  0  0  0  0
  -29.3390   55.4830   48.1880 C   0  0  0  0  0  0  0  0  0  0  0  0
  -30.2850   55.9470   48.9660 N   0  0  0  0  0  0  0  0  0  0  0  0
  -30.1090   57.1220   49.6840 O   0  0  0  0  0  0  0  0  0  0  0  0
  -30.7030   53.4850   47.4600 C   0  0  0  0  0  0  0  0  0  0  0  0
  -30.8220   52.2620   46.7250 C   0  0  0  0  0  0  0  0  0  0  0  0
  -32.8260   52.3480   42.0790 O   0  0  0  0  0  0  0  0  0  0  0  0
  -34.2310   52.2770   42.3750 C   0  0  0  0  0  0  0  0  0  0  0  0
  -32.9260   46.6630   41.4430 H   0  0  0  0  0  0  0  0  0  0  0  0
  -33.8040   47.5400   42.6870 H   0  0  0  0  0  0  0  0  0  0  0  0
  -34.2560   47.7240   40.9810 H   0  0  0  0  0  0  0  0  0  0  0  0
  -33.8750   50.0490   41.1780 H   0  0  0  0  0  0  0  0  0  0  0  0
  -33.4790   49.8420   42.8940 H   0  0  0  0  0  0  0  0  0  0  0  0
  -31.3410   52.1180   39.9780 H   0  0  0  0  0  0  0  0  0  0  0  0
  -31.8810   50.5100   39.6900 H   0  0  0  0  0  0  0  0  0  0  0  0
  -29.2080   51.4550   40.3220 H   0  0  0  0  0  0  0  0  0  0  0  0
  -29.6530   49.8000   39.9750 H   0  0  0  0  0  0  0  0  0  0  0  0
  -29.9130   49.2480   42.1920 H   0  0  0  0  0  0  0  0  0  0  0  0
  -27.9940   51.5670   42.9140 H   0  0  0  0  0  0  0  0  0  0  0  0
  -27.1660   50.0300   41.1850 H   0  0  0  0  0  0  0  0  0  0  0  0
  -27.5890   48.6440   42.1730 H   0  0  0  0  0  0  0  0  0  0  0  0
  -25.5550   50.8250   42.9400 H   0  0  0  0  0  0  0  0  0  0  0  0
  -25.1650   49.2080   42.4050 H   0  0  0  0  0  0  0  0  0  0  0  0
  -23.9520   48.6630   44.4070 H   0  0  0  0  0  0  0  0  0  0  0  0
  -26.1240   48.1030   48.1020 H   0  0  0  0  0  0  0  0  0  0  0  0
  -26.6240   47.0330   46.8600 H   0  0  0  0  0  0  0  0  0  0  0  0
  -27.2720   49.9340   47.1930 H   0  0  0  0  0  0  0  0  0  0  0  0
  -28.3110   48.5950   46.7920 H   0  0  0  0  0  0  0  0  0  0  0  0
  -29.9490   49.6970   45.9410 H   0  0  0  0  0  0  0  0  0  0  0  0
  -31.9300   50.8700   44.7250 H   0  0  0  0  0  0  0  0  0  0  0  0
  -31.3280   49.3860   44.1020 H   0  0  0  0  0  0  0  0  0  0  0  0
  -29.5450   52.7790   43.4550 H   0  0  0  0  0  0  0  0  0  0  0  0
  -30.5470   53.1270   42.0850 H   0  0  0  0  0  0  0  0  0  0  0  0
  -31.2200   53.0380   43.6890 H   0  0  0  0  0  0  0  0  0  0  0  0
  -27.6260   52.2800   45.3710 H   0  0  0  0  0  0  0  0  0  0  0  0
  -27.4860   54.3650   46.6230 H   0  0  0  0  0  0  0  0  0  0  0  0
  -28.3860   56.0130   48.0980 H   0  0  0  0  0  0  0  0  0  0  0  0
  -30.8810   57.1360   50.2310 H   0  0  0  0  0  0  0  0  0  0  0  0
  -31.5450   53.8180   48.0500 H   0  0  0  0  0  0  0  0  0  0  0  0
  -31.7210   51.6810   46.7180 H   0  0  0  0  0  0  0  0  0  0  0  0
  -34.5680   53.3000   42.4730 H   0  0  0  0  0  0  0  0  0  0  0  0
  -34.8430   51.8370   41.5950 H   0  0  0  0  0  0  0  0  0  0  0  0
  -34.4280   51.7860   43.3280 H   0  0  0  0  0  0  0  0  0  0  0  0
  1  6  1  0  0  0  0
  1 34  1  0  0  0  0
  1 35  1  0  0  0  0
  1 36  1  0  0  0  0
  2  3  1  0  0  0  0
  2  6  1  0  0  0  0
  2 37  1  0  0  0  0
  2 38  1  0  0  0  0
  3  4  1  0  0  0  0
  3 21  1  0  0  0  0
  3 32  1  1  0  0  0
  4  5  1  0  0  0  0
  4 39  1  0  0  0  0
  4 40  1  0  0  0  0
  5  7  1  0  0  0  0
  5 41  1  0  0  0  0
  5 42  1  0  0  0  0
  7  8  1  0  0  0  0
  7 21  1  0  0  0  0
  7 43  1  1  0  0  0
  8  9  1  0  0  0  0
  8 18  1  0  0  0  0
  8 44  1  6  0  0  0
  9 10  1  0  0  0  0
  9 45  1  0  0  0  0
  9 46  1  0  0  0  0
 10 11  1  0  0  0  0
 10 47  1  0  0  0  0
 10 48  1  0  0  0  0
 11 12  2  0  0  0  0
 11 17  1  0  0  0  0
 12 13  1  0  0  0  0
 12 49  1  0  0  0  0
 13 14  2  0  0  0  0
 13 15  1  0  0  0  0
 15 16  1  0  0  0  0
 15 50  1  0  0  0  0
 15 51  1  0  0  0  0
 16 17  1  0  0  0  0
 16 52  1  0  0  0  0
 16 53  1  0  0  0  0
 17 18  2  0  0  0  0
 18 19  1  0  0  0  0
 19 20  1  0  0  0  0
 19 23  1  0  0  0  0
 19 54  1  1  0  0  0
 20 21  1  0  0  0  0
 20 55  1  0  0  0  0
 20 56  1  0  0  0  0
 21 22  1  1  0  0  0
 22 57  1  0  0  0  0
 22 58  1  0  0  0  0
 22 59  1  0  0  0  0
 23 24  2  0  0  0  0
 23 31  1  0  0  0  0
 24 25  1  0  0  0  0
 24 60  1  0  0  0  0
 25 26  2  0  0  0  0
 25 61  1  0  0  0  0
 26 27  1  0  0  0  0
 26 30  1  0  0  0  0
 27 28  2  0  0  0  0
 27 62  1  0  0  0  0
 28 29  1  0  0  0  0
 29 63  1  0  0  0  0
 30 31  2  0  0  0  0
 30 64  1  0  0  0  0
 31 65  1  0  0  0  0
 32 33  1  0  0  0  0
 33 66  1  0  0  0  0
 33 67  1  0  0  0  0
 33 68  1  0  0  0  0
M  END
>  <COMPND>
    title: molecule 1

$$$$
3E6Y_ligand0.pdb
 OpenBabel06042612053D

 98103  0  0  1  0  0  0  0  0999 V2000
  -21.0040  -19.6560  -23.5080 O   0  0  0  0  0  0  0  0  0  0  0  0
  -20.5910  -20.8200  -23.3930 C   0  0  0  0  0  0  0  0  0  0  0  0
  -19.2240  -21.0780  -23.4230 O   0  0  0  0  0  0  0  0  0  0  0  0
  -18.4880  -19.8980  -23.5430 C   0  0  0  0  0  0  0  0  0  0  0  0
  -17.8410  -19.9740  -24.9270 C   0  0  0  0  0  0  0  0  0  0  0  0
  -16.2940  -20.0650  -24.7330 C   0  0  2  0  0  0  0  0  0  0  0  0
  -15.6070  -21.3800  -25.1730 C   0  0  0  0  0  0  0  0  0  0  0  0
  -15.3710  -18.9500  -24.2850 O   0  0  0  0  0  0  0  0  0  0  0  0
  -14.8860  -18.2850  -25.4250 C   0  0  1  0  0  0  0  0  0  0  0  0
  -13.3970  -17.7490  -25.5090 C   0  0  1  0  0  0  0  0  0  0  0  0
  -13.2650  -16.5110  -24.7930 O   0  0  0  0  0  0  0  0  0  0  0  0
  -12.3490  -18.8140  -25.3140 C   0  0  0  0  0  0  0  0  0  0  0  0
  -11.5170  -18.5330  -24.2350 O   0  0  0  0  0  0  0  0  0  0  0  0
  -12.3270  -18.9540  -23.1020 C   0  0  0  0  0  0  0  0  0  0  0  0
  -15.0170  -19.2430  -26.4960 O   0  0  0  0  0  0  0  0  0  0  0  0
  -16.3140  -19.5040  -26.3050 C   0  0  2  0  0  0  0  0  0  0  0  0
  -16.6720  -18.1480  -26.7100 O   0  0  0  0  0  0  0  0  0  0  0  0
  -15.9220  -17.2860  -25.8090 C   0  0  2  0  0  0  0  0  0  0  0  0
  -15.1650  -16.0880  -26.3930 C   0  0  1  0  0  0  0  0  0  0  0  0
  -16.1260  -15.1400  -26.8400 O   0  0  0  0  0  0  0  0  0  0  0  0
  -14.1650  -15.5000  -25.3520 C   0  0  1  0  0  0  0  0  0  0  0  0
  -14.9110  -15.1290  -24.1920 O   0  0  0  0  0  0  0  0  0  0  0  0
  -14.1850  -14.1290  -23.4010 C   0  0  2  0  0  0  0  0  0  0  0  0
  -14.0940  -14.7420  -21.9990 C   0  0  0  0  0  0  0  0  0  0  0  0
  -15.0270  -15.5040  -21.2690 C   0  0  0  0  0  0  0  0  0  0  0  0
  -16.5220  -15.5440  -21.6900 C   0  0  0  0  0  0  0  0  0  0  0  0
  -17.2180  -16.9360  -21.6820 C   0  0  0  0  0  0  0  0  0  0  0  0
  -17.2630  -14.4710  -20.8490 C   0  0  0  0  0  0  0  0  0  0  0  0
  -14.4390  -15.9340  -19.9470 C   0  0  0  0  0  0  0  0  0  0  0  0
  -12.9310  -15.9080  -20.1970 C   0  0  0  0  0  0  0  0  0  0  0  0
  -12.7270  -14.7650  -21.2380 C   0  0  1  0  0  0  0  0  0  0  0  0
  -11.5430  -15.0690  -22.1740 C   0  0  0  0  0  0  0  0  0  0  0  0
  -12.4140  -13.6010  -20.4880 C   0  0  0  0  0  0  0  0  0  0  0  0
  -12.9990  -12.3170  -20.4360 C   0  0  0  0  0  0  0  0  0  0  0  0
  -12.6550  -11.1640  -19.4750 C   0  0  2  0  0  0  0  0  0  0  0  0
  -11.4500  -10.3240  -19.8300 C   0  0  0  0  0  0  0  0  0  0  0  0
  -10.5490  -10.5170  -18.7150 O   0  0  0  0  0  0  0  0  0  0  0  0
   -9.2690   -9.9230  -19.0030 C   0  0  0  0  0  0  0  0  0  0  0  0
  -12.4710  -11.6990  -18.1410 O   0  0  0  0  0  0  0  0  0  0  0  0
  -13.8630  -10.3030  -19.3820 C   0  0  0  0  0  0  0  0  0  0  0  0
  -14.6970  -10.5280  -20.6330 C   0  0  0  0  0  0  0  0  0  0  0  0
  -14.2870  -11.8770  -21.1960 C   0  0  1  0  0  0  0  0  0  0  0  0
  -14.1800  -11.6860  -22.7470 C   0  0  1  0  0  0  0  0  0  0  0  0
  -12.7500  -11.4470  -23.3400 C   0  0  0  0  0  0  0  0  0  0  0  0
  -14.9690  -12.8140  -23.3900 C   0  0  1  0  0  0  0  0  0  0  0  0
  -15.3820  -12.4260  -24.7090 O   0  0  0  0  0  0  0  0  0  0  0  0
  -21.1660  -21.7390  -23.2740 H   0  0  0  0  0  0  0  0  0  0  0  0
  -17.7050  -19.9540  -22.7870 H   0  0  0  0  0  0  0  0  0  0  0  0
  -18.9520  -18.9290  -23.3560 H   0  0  0  0  0  0  0  0  0  0  0  0
  -18.2110  -19.0110  -25.2760 H   0  0  0  0  0  0  0  0  0  0  0  0
  -18.2400  -20.8190  -25.4930 H   0  0  0  0  0  0  0  0  0  0  0  0
  -14.5750  -21.2850  -25.5120 H   0  0  0  0  0  0  0  0  0  0  0  0
  -15.5450  -22.0260  -24.2980 H   0  0  0  0  0  0  0  0  0  0  0  0
  -16.1690  -21.9580  -25.9090 H   0  0  0  0  0  0  0  0  0  0  0  0
  -13.1890  -17.5160  -26.5520 H   0  0  0  0  0  0  0  0  0  0  0  0
  -11.6820  -18.8200  -26.1780 H   0  0  0  0  0  0  0  0  0  0  0  0
  -12.7640  -19.8230  -25.2880 H   0  0  0  0  0  0  0  0  0  0  0  0
  -11.9510  -18.5070  -22.1910 H   0  0  0  0  0  0  0  0  0  0  0  0
  -13.3550  -18.6040  -23.1080 H   0  0  0  0  0  0  0  0  0  0  0  0
  -12.3240  -20.0390  -22.9840 H   0  0  0  0  0  0  0  0  0  0  0  0
  -16.6720  -20.1990  -27.0700 H   0  0  0  0  0  0  0  0  0  0  0  0
  -16.5210  -17.0060  -24.9400 H   0  0  0  0  0  0  0  0  0  0  0  0
  -14.6450  -16.3450  -27.3150 H   0  0  0  0  0  0  0  0  0  0  0  0
  -16.6060  -14.8150  -26.0850 H   0  0  0  0  0  0  0  0  0  0  0  0
  -13.5660  -14.7080  -25.7710 H   0  0  0  0  0  0  0  0  0  0  0  0
  -13.1910  -13.9730  -23.8090 H   0  0  0  0  0  0  0  0  0  0  0  0
  -16.6320  -15.2020  -22.7120 H   0  0  0  0  0  0  0  0  0  0  0  0
  -18.2400  -16.8660  -22.0570 H   0  0  0  0  0  0  0  0  0  0  0  0
  -16.6790  -17.6410  -22.3150 H   0  0  0  0  0  0  0  0  0  0  0  0
  -17.2570  -17.3510  -20.6750 H   0  0  0  0  0  0  0  0  0  0  0  0
  -18.3300  -14.4910  -21.0730 H   0  0  0  0  0  0  0  0  0  0  0  0
  -17.1570  -14.6610  -19.7820 H   0  0  0  0  0  0  0  0  0  0  0  0
  -16.9390  -13.4570  -21.0440 H   0  0  0  0  0  0  0  0  0  0  0  0
  -14.7880  -16.9230  -19.6500 H   0  0  0  0  0  0  0  0  0  0  0  0
  -14.7110  -15.2190  -19.1850 H   0  0  0  0  0  0  0  0  0  0  0  0
  -12.6340  -16.8620  -20.6330 H   0  0  0  0  0  0  0  0  0  0  0  0
  -12.3640  -15.7940  -19.2730 H   0  0  0  0  0  0  0  0  0  0  0  0
  -10.6580  -15.3430  -21.6010 H   0  0  0  0  0  0  0  0  0  0  0  0
  -11.7580  -15.9070  -22.8350 H   0  0  0  0  0  0  0  0  0  0  0  0
  -11.2610  -14.2170  -22.7780 H   0  0  0  0  0  0  0  0  0  0  0  0
  -11.5630  -13.7330  -19.8340 H   0  0  0  0  0  0  0  0  0  0  0  0
  -11.6590   -9.2640  -19.9810 H   0  0  0  0  0  0  0  0  0  0  0  0
  -11.0010  -10.7020  -20.7440 H   0  0  0  0  0  0  0  0  0  0  0  0
   -8.6890   -9.8720  -18.0820 H   0  0  0  0  0  0  0  0  0  0  0  0
   -8.7130  -10.5330  -19.7100 H   0  0  0  0  0  0  0  0  0  0  0  0
   -9.3630   -8.9100  -19.3960 H   0  0  0  0  0  0  0  0  0  0  0  0
  -13.0750  -12.4160  -17.9930 H   0  0  0  0  0  0  0  0  0  0  0  0
  -13.6610   -9.2470  -19.2010 H   0  0  0  0  0  0  0  0  0  0  0  0
  -14.4930  -10.6070  -18.5510 H   0  0  0  0  0  0  0  0  0  0  0  0
  -14.4610   -9.7020  -21.3030 H   0  0  0  0  0  0  0  0  0  0  0  0
  -15.7650  -10.4840  -20.4320 H   0  0  0  0  0  0  0  0  0  0  0  0
  -15.0610  -12.5700  -20.8920 H   0  0  0  0  0  0  0  0  0  0  0  0
  -14.7550  -10.8040  -23.0330 H   0  0  0  0  0  0  0  0  0  0  0  0
  -12.7780  -11.3990  -24.4280 H   0  0  0  0  0  0  0  0  0  0  0  0
  -12.3440  -10.5030  -22.9800 H   0  0  0  0  0  0  0  0  0  0  0  0
  -12.0430  -12.2190  -23.0570 H   0  0  0  0  0  0  0  0  0  0  0  0
  -15.9170  -12.9450  -22.8760 H   0  0  0  0  0  0  0  0  0  0  0  0
  -16.2330  -12.8230  -24.8920 H   0  0  0  0  0  0  0  0  0  0  0  0
  1  2  2  0  0  0  0
  2  3  1  0  0  0  0
  2 47  1  0  0  0  0
  3  4  1  0  0  0  0
  4  5  1  0  0  0  0
  4 48  1  0  0  0  0
  4 49  1  0  0  0  0
  5 50  1  0  0  0  0
  5 51  1  0  0  0  0
  6  5  1  1  0  0  0
  6  7  1  0  0  0  0
  6  8  1  0  0  0  0
  6 16  1  0  0  0  0
  7 52  1  0  0  0  0
  7 53  1  0  0  0  0
  7 54  1  0  0  0  0
  9  8  1  1  0  0  0
  9 10  1  0  0  0  0
  9 15  1  0  0  0  0
  9 18  1  0  0  0  0
 10 11  1  0  0  0  0
 10 12  1  0  0  0  0
 10 55  1  6  0  0  0
 11 21  1  0  0  0  0
 12 13  1  0  0  0  0
 12 56  1  0  0  0  0
 12 57  1  0  0  0  0
 13 14  1  0  0  0  0
 14 58  1  0  0  0  0
 14 59  1  0  0  0  0
 14 60  1  0  0  0  0
 15 16  1  0  0  0  0
 16 17  1  0  0  0  0
 16 61  1  6  0  0  0
 17 18  1  0  0  0  0
 18 19  1  0  0  0  0
 18 62  1  1  0  0  0
 19 20  1  0  0  0  0
 19 21  1  0  0  0  0
 19 63  1  6  0  0  0
 20 64  1  0  0  0  0
 21 22  1  0  0  0  0
 21 65  1  6  0  0  0
 22 23  1  0  0  0  0
 23 24  1  0  0  0  0
 23 45  1  0  0  0  0
 23 66  1  6  0  0  0
 24 25  2  0  0  0  0
 24 31  1  0  0  0  0
 25 26  1  0  0  0  0
 25 29  1  0  0  0  0
 26 27  1  0  0  0  0
 26 28  1  0  0  0  0
 26 67  1  0  0  0  0
 27 68  1  0  0  0  0
 27 69  1  0  0  0  0
 27 70  1  0  0  0  0
 28 71  1  0  0  0  0
 28 72  1  0  0  0  0
 28 73  1  0  0  0  0
 29 30  1  0  0  0  0
 29 74  1  0  0  0  0
 29 75  1  0  0  0  0
 30 31  1  0  0  0  0
 30 76  1  0  0  0  0
 30 77  1  0  0  0  0
 31 32  1  6  0  0  0
 31 33  1  0  0  0  0
 32 78  1  0  0  0  0
 32 79  1  0  0  0  0
 32 80  1  0  0  0  0
 33 34  2  0  0  0  0
 33 81  1  0  0  0  0
 34 35  1  0  0  0  0
 34 42  1  0  0  0  0
 35 36  1  0  0  0  0
 35 39  1  1  0  0  0
 35 40  1  0  0  0  0
 36 37  1  0  0  0  0
 36 82  1  0  0  0  0
 36 83  1  0  0  0  0
 37 38  1  0  0  0  0
 38 84  1  0  0  0  0
 38 85  1  0  0  0  0
 38 86  1  0  0  0  0
 39 87  1  0  0  0  0
 40 41  1  0  0  0  0
 40 88  1  0  0  0  0
 40 89  1  0  0  0  0
 41 42  1  0  0  0  0
 41 90  1  0  0  0  0
 41 91  1  0  0  0  0
 42 43  1  0  0  0  0
 42 92  1  1  0  0  0
 43 44  1  0  0  0  0
 43 45  1  0  0  0  0
 43 93  1  6  0  0  0
 44 94  1  0  0  0  0
 44 95  1  0  0  0  0
 44 96  1  0  0  0  0
 45 46  1  0  0  0  0
 45 97  1  1  0  0  0
 46 98  1  0  0  0  0
M  END
>  <COMPND>
    title: molecule 1

$$$$
3FAP_ligand0.pdb
 OpenBabel06042612053D

150154  0  0  1  0  0  0  0  0999 V2000
   -7.3240   26.3160   38.9430 O   0  0  0  0  0  0  0  0  0  0  0  0
   -6.3050   25.7940   39.8490 C   0  0  0  0  0  0  0  0  0  0  0  0
   -5.1260   25.5300   39.5770 O   0  0  0  0  0  0  0  0  0  0  0  0
   -6.8870   25.1890   41.1000 C   0  0  2  0  0  0  0  0  0  0  0  0
   -6.2620   23.8050   41.4450 C   0  0  0  0  0  0  0  0  0  0  0  0
   -7.0240   22.7750   40.5710 C   0  0  0  0  0  0  0  0  0  0  0  0
   -8.5930   22.8670   40.8480 C   0  0  0  0  0  0  0  0  0  0  0  0
   -9.1640   24.2270   40.4570 C   0  0  0  0  0  0  0  0  0  0  0  0
   -8.3010   25.1880   41.2680 N   0  0  0  0  0  0  0  0  0  0  0  0
   -8.8370   26.1170   42.0160 C   0  0  0  0  0  0  0  0  0  0  0  0
   -8.0240   26.9320   42.5780 O   0  0  0  0  0  0  0  0  0  0  0  0
  -10.2390   26.2140   42.4520 C   0  0  0  0  0  0  0  0  0  0  0  0
  -10.8050   25.3600   43.2380 O   0  0  0  0  0  0  0  0  0  0  0  0
  -11.1470   27.1800   41.7680 C   0  0  1  0  0  0  0  0  0  0  0  0
  -10.6760   28.5890   41.9510 C   0  0  1  0  0  0  0  0  0  0  0  0
  -11.7210   29.5980   41.2160 C   0  0  0  0  0  0  0  0  0  0  0  0
  -11.7830   29.1680   39.7310 C   0  0  0  0  0  0  0  0  0  0  0  0
  -12.1950   27.6810   39.6000 C   0  0  2  0  0  0  0  0  0  0  0  0
  -11.1480   26.8600   40.2720 O   0  0  0  0  0  0  0  0  0  0  0  0
  -12.4720   26.9360   42.2730 O   0  0  0  0  0  0  0  0  0  0  0  0
  -10.7510   28.8370   43.5270 C   0  0  0  0  0  0  0  0  0  0  0  0
  -12.0030   27.2810   38.0160 C   0  0  0  0  0  0  0  0  0  0  0  0
  -12.4270   25.7690   37.9310 C   0  0  1  0  0  0  0  0  0  0  0  0
  -13.7680   25.5490   38.3270 C   0  0  0  0  0  0  0  0  0  0  0  0
  -12.2540   25.2580   36.4240 C   0  0  0  0  0  0  0  0  0  0  0  0
  -12.1930   23.7980   36.4460 C   0  0  0  0  0  0  0  0  0  0  0  0
  -11.9570   26.0710   35.4520 C   0  0  0  0  0  0  0  0  0  0  0  0
  -11.5900   25.4840   34.0640 C   0  0  0  0  0  0  0  0  0  0  0  0
  -11.3840   26.3060   33.0680 C   0  0  0  0  0  0  0  0  0  0  0  0
  -11.0370   25.5120   31.8630 C   0  0  0  0  0  0  0  0  0  0  0  0
  -10.6860   26.2380   30.7690 C   0  0  0  0  0  0  0  0  0  0  0  0
  -10.2240   25.5540   29.4530 C   0  0  1  0  0  0  0  0  0  0  0  0
  -10.8980   26.0990   28.1360 C   0  0  0  0  0  0  0  0  0  0  0  0
   -8.7390   25.7840   29.2820 C   0  0  0  0  0  0  0  0  0  0  0  0
   -7.7270   25.2770   30.3440 C   0  0  1  0  0  0  0  0  0  0  0  0
   -7.6410   23.7590   30.1940 C   0  0  0  0  0  0  0  0  0  0  0  0
   -6.3920   25.9520   30.1900 C   0  0  0  0  0  0  0  0  0  0  0  0
   -5.3910   25.3870   29.6920 O   0  0  0  0  0  0  0  0  0  0  0  0
   -6.1740   27.3250   30.9810 C   0  0  2  0  0  0  0  0  0  0  0  0
   -4.8990   27.9330   30.4840 O   0  0  0  0  0  0  0  0  0  0  0  0
   -4.8810   28.4960   29.2200 C   0  0  0  0  0  0  0  0  0  0  0  0
   -5.8370   27.1090   32.4520 C   0  0  2  0  0  0  0  0  0  0  0  0
   -4.7410   26.1730   32.5510 O   0  0  0  0  0  0  0  0  0  0  0  0
   -7.0890   26.6630   33.2690 C   0  0  0  0  0  0  0  0  0  0  0  0
   -8.1640   27.7170   33.2710 C   0  0  0  0  0  0  0  0  0  0  0  0
   -7.0940   25.4270   33.8440 C   0  0  0  0  0  0  0  0  0  0  0  0
   -8.3930   24.9930   34.6200 C   0  0  1  0  0  0  0  0  0  0  0  0
   -8.6350   23.5100   34.2890 C   0  0  0  0  0  0  0  0  0  0  0  0
   -7.9700   25.1210   36.0760 C   0  0  0  0  0  0  0  0  0  0  0  0
   -7.4640   24.2170   36.7480 O   0  0  0  0  0  0  0  0  0  0  0  0
   -8.0450   26.5900   36.6040 C   0  0  0  0  0  0  0  0  0  0  0  0
   -6.8300   26.7150   37.6900 C   0  0  1  0  0  0  0  0  0  0  0  0
   -6.6700   28.2260   38.0620 C   0  0  2  0  0  0  0  0  0  0  0  0
   -8.0830   28.8210   38.4960 C   0  0  0  0  0  0  0  0  0  0  0  0
   -6.2450   29.1300   36.8610 C   0  0  0  0  0  0  0  0  0  0  0  0
   -5.0380   28.5850   36.1230 C   0  0  1  0  0  0  0  0  0  0  0  0
   -4.5410   29.7540   35.0790 C   0  0  0  0  0  0  0  0  0  0  0  0
   -3.2220   29.3740   34.3590 C   0  0  1  0  0  0  0  0  0  0  0  0
   -2.8460   30.5050   33.5960 O   0  0  0  0  0  0  0  0  0  0  0  0
   -3.7400   30.7770   32.3990 C   0  0  0  0  0  0  0  0  0  0  0  0
   -2.0840   29.2830   35.4370 C   0  0  2  0  0  0  0  0  0  0  0  0
   -0.8600   28.9230   34.6430 O   0  0  0  0  0  0  0  0  0  0  0  0
   -2.4670   28.1370   36.3800 C   0  0  0  0  0  0  0  0  0  0  0  0
   -3.8490   28.4230   37.0210 C   0  0  0  0  0  0  0  0  0  0  0  0
  -16.1910   25.3750   38.8990 C   0  0  0  0  0  0  0  0  0  0  0  0
  -15.3560   24.6590   39.8630 C   0  0  0  0  0  0  0  0  0  0  0  0
  -14.0280   24.8060   39.5470 C   0  0  0  0  0  0  0  0  0  0  0  0
  -17.6050   25.3620   38.9820 C   0  0  0  0  0  0  0  0  0  0  0  0
  -15.3040   26.0580   37.6970 S   0  0  0  0  0  0  0  0  0  0  0  0
   -6.3380   25.7350   41.8670 H   0  0  0  0  0  0  0  0  0  0  0  0
   -6.4360   23.5920   42.4990 H   0  0  0  0  0  0  0  0  0  0  0  0
   -5.1860   23.7480   41.2830 H   0  0  0  0  0  0  0  0  0  0  0  0
   -6.6730   21.7710   40.7770 H   0  0  0  0  0  0  0  0  0  0  0  0
   -6.8250   22.9480   39.5130 H   0  0  0  0  0  0  0  0  0  0  0  0
   -8.7930   22.6630   41.9010 H   0  0  0  0  0  0  0  0  0  0  0  0
   -9.1080   22.0880   40.2860 H   0  0  0  0  0  0  0  0  0  0  0  0
  -10.2310   24.2650   40.6750 H   0  0  0  0  0  0  0  0  0  0  0  0
   -9.0460   24.4070   39.3880 H   0  0  0  0  0  0  0  0  0  0  0  0
   -9.6700   28.7350   41.5550 H   0  0  0  0  0  0  0  0  0  0  0  0
  -11.3910   30.6330   41.3080 H   0  0  0  0  0  0  0  0  0  0  0  0
  -12.7100   29.5290   41.6670 H   0  0  0  0  0  0  0  0  0  0  0  0
  -10.8120   29.3370   39.2650 H   0  0  0  0  0  0  0  0  0  0  0  0
  -12.4950   29.7980   39.1990 H   0  0  0  0  0  0  0  0  0  0  0  0
  -13.2090   27.5130   39.9630 H   0  0  0  0  0  0  0  0  0  0  0  0
  -12.6070   25.9940   42.2850 H   0  0  0  0  0  0  0  0  0  0  0  0
  -10.5480   29.8880   43.7250 H   0  0  0  0  0  0  0  0  0  0  0  0
  -11.7320   28.6340   43.9560 H   0  0  0  0  0  0  0  0  0  0  0  0
  -10.0020   28.2830   44.0920 H   0  0  0  0  0  0  0  0  0  0  0  0
  -10.9730   27.4370   37.7010 H   0  0  0  0  0  0  0  0  0  0  0  0
  -12.6550   27.9180   37.4170 H   0  0  0  0  0  0  0  0  0  0  0  0
  -11.7420   25.1830   38.5470 H   0  0  0  0  0  0  0  0  0  0  0  0
  -12.3570   23.3370   35.4750 H   0  0  0  0  0  0  0  0  0  0  0  0
  -11.2170   23.4880   36.8180 H   0  0  0  0  0  0  0  0  0  0  0  0
  -12.9500   23.3700   37.1030 H   0  0  0  0  0  0  0  0  0  0  0  0
  -11.9510   27.1430   35.5490 H   0  0  0  0  0  0  0  0  0  0  0  0
  -11.4890   24.4170   33.9350 H   0  0  0  0  0  0  0  0  0  0  0  0
  -11.4490   27.3810   33.1190 H   0  0  0  0  0  0  0  0  0  0  0  0
  -10.9660   24.4430   31.8650 H   0  0  0  0  0  0  0  0  0  0  0  0
  -10.7110   27.3150   30.7880 H   0  0  0  0  0  0  0  0  0  0  0  0
  -10.4090   24.4860   29.5120 H   0  0  0  0  0  0  0  0  0  0  0  0
  -10.4360   25.6940   27.2390 H   0  0  0  0  0  0  0  0  0  0  0  0
  -11.9570   25.8440   28.1160 H   0  0  0  0  0  0  0  0  0  0  0  0
  -10.8170   27.1830   28.0810 H   0  0  0  0  0  0  0  0  0  0  0  0
   -8.5900   26.8500   29.1500 H   0  0  0  0  0  0  0  0  0  0  0  0
   -8.4370   25.3610   28.3220 H   0  0  0  0  0  0  0  0  0  0  0  0
   -8.1220   25.5050   31.3280 H   0  0  0  0  0  0  0  0  0  0  0  0
   -6.9730   23.3250   30.9390 H   0  0  0  0  0  0  0  0  0  0  0  0
   -8.6170   23.3120   30.3410 H   0  0  0  0  0  0  0  0  0  0  0  0
   -7.2810   23.4590   29.2090 H   0  0  0  0  0  0  0  0  0  0  0  0
   -7.0010   28.0150   30.8410 H   0  0  0  0  0  0  0  0  0  0  0  0
   -3.9070   28.9480   29.0350 H   0  0  0  0  0  0  0  0  0  0  0  0
   -5.0600   27.7560   28.4410 H   0  0  0  0  0  0  0  0  0  0  0  0
   -5.6360   29.2780   29.1370 H   0  0  0  0  0  0  0  0  0  0  0  0
   -5.4930   28.0500   32.8780 H   0  0  0  0  0  0  0  0  0  0  0  0
   -4.5510   26.0310   33.4690 H   0  0  0  0  0  0  0  0  0  0  0  0
   -8.9640   27.5620   33.9890 H   0  0  0  0  0  0  0  0  0  0  0  0
   -7.7240   28.6870   33.5030 H   0  0  0  0  0  0  0  0  0  0  0  0
   -8.6300   27.7880   32.2900 H   0  0  0  0  0  0  0  0  0  0  0  0
   -6.2750   24.7270   33.7840 H   0  0  0  0  0  0  0  0  0  0  0  0
   -9.2430   25.6200   34.4130 H   0  0  0  0  0  0  0  0  0  0  0  0
   -9.4910   23.1200   34.8400 H   0  0  0  0  0  0  0  0  0  0  0  0
   -8.8550   23.3890   33.2280 H   0  0  0  0  0  0  0  0  0  0  0  0
   -7.7740   22.8770   34.5130 H   0  0  0  0  0  0  0  0  0  0  0  0
   -9.0220   26.7660   37.0480 H   0  0  0  0  0  0  0  0  0  0  0  0
   -7.9010   27.2880   35.7890 H   0  0  0  0  0  0  0  0  0  0  0  0
   -5.9040   26.2360   37.3700 H   0  0  0  0  0  0  0  0  0  0  0  0
   -5.9450   28.3560   38.8650 H   0  0  0  0  0  0  0  0  0  0  0  0
   -7.9590   29.8550   38.8200 H   0  0  0  0  0  0  0  0  0  0  0  0
   -8.8060   28.8490   37.6820 H   0  0  0  0  0  0  0  0  0  0  0  0
   -8.5520   28.3080   39.3350 H   0  0  0  0  0  0  0  0  0  0  0  0
   -6.0470   30.1370   37.2290 H   0  0  0  0  0  0  0  0  0  0  0  0
   -7.0650   29.2170   36.1510 H   0  0  0  0  0  0  0  0  0  0  0  0
   -5.2660   27.6640   35.5880 H   0  0  0  0  0  0  0  0  0  0  0  0
   -4.4130   30.7030   35.6030 H   0  0  0  0  0  0  0  0  0  0  0  0
   -5.3440   29.9080   34.3610 H   0  0  0  0  0  0  0  0  0  0  0  0
   -3.3060   28.4690   33.7570 H   0  0  0  0  0  0  0  0  0  0  0  0
   -3.2850   31.5500   31.7790 H   0  0  0  0  0  0  0  0  0  0  0  0
   -3.8480   29.8830   31.7870 H   0  0  0  0  0  0  0  0  0  0  0  0
   -4.7290   31.1350   32.6830 H   0  0  0  0  0  0  0  0  0  0  0  0
   -1.9430   30.2250   35.9690 H   0  0  0  0  0  0  0  0  0  0  0  0
   -0.1180   28.9280   35.2330 H   0  0  0  0  0  0  0  0  0  0  0  0
   -1.7080   28.0330   37.1540 H   0  0  0  0  0  0  0  0  0  0  0  0
   -2.4830   27.2030   35.8370 H   0  0  0  0  0  0  0  0  0  0  0  0
   -4.0420   27.6140   37.7240 H   0  0  0  0  0  0  0  0  0  0  0  0
   -3.7470   29.3160   37.6410 H   0  0  0  0  0  0  0  0  0  0  0  0
  -15.7110   24.1370   40.7350 H   0  0  0  0  0  0  0  0  0  0  0  0
  -13.2520   24.3790   40.1610 H   0  0  0  0  0  0  0  0  0  0  0  0
  -18.0590   25.9850   38.2130 H   0  0  0  0  0  0  0  0  0  0  0  0
  -17.9940   24.3490   38.8750 H   0  0  0  0  0  0  0  0  0  0  0  0
  -17.9360   25.7440   39.9480 H   0  0  0  0  0  0  0  0  0  0  0  0
  1  2  1  0  0  0  0
  1 52  1  0  0  0  0
  2  3  2  0  0  0  0
  2  4  1  0  0  0  0
  4  5  1  0  0  0  0
  4  9  1  0  0  0  0
  4 70  1  1  0  0  0
  5  6  1  0  0  0  0
  5 71  1  0  0  0  0
  5 72  1  0  0  0  0
  6  7  1  0  0  0  0
  6 73  1  0  0  0  0
  6 74  1  0  0  0  0
  7  8  1  0  0  0  0
  7 75  1  0  0  0  0
  7 76  1  0  0  0  0
  8  9  1  0  0  0  0
  8 77  1  0  0  0  0
  8 78  1  0  0  0  0
  9 10  1  0  0  0  0
 10 11  2  0  0  0  0
 10 12  1  0  0  0  0
 12 13  2  0  0  0  0
 12 14  1  0  0  0  0
 14 15  1  0  0  0  0
 14 19  1  0  0  0  0
 14 20  1  1  0  0  0
 15 16  1  0  0  0  0
 15 21  1  0  0  0  0
 15 79  1  6  0  0  0
 16 17  1  0  0  0  0
 16 80  1  0  0  0  0
 16 81  1  0  0  0  0
 17 18  1  0  0  0  0
 17 82  1  0  0  0  0
 17 83  1  0  0  0  0
 18 19  1  0  0  0  0
 18 22  1  0  0  0  0
 18 84  1  1  0  0  0
 20 85  1  0  0  0  0
 21 86  1  0  0  0  0
 21 87  1  0  0  0  0
 21 88  1  0  0  0  0
 22 23  1  0  0  0  0
 22 89  1  0  0  0  0
 22 90  1  0  0  0  0
 23 24  1  0  0  0  0
 23 25  1  0  0  0  0
 23 91  1  1  0  0  0
 24 67  2  0  0  0  0
 24 69  1  0  0  0  0
 25 26  1  0  0  0  0
 25 27  2  0  0  0  0
 26 92  1  0  0  0  0
 26 93  1  0  0  0  0
 26 94  1  0  0  0  0
 27 28  1  0  0  0  0
 27 95  1  0  0  0  0
 28 29  2  0  0  0  0
 28 96  1  0  0  0  0
 29 30  1  0  0  0  0
 29 97  1  0  0  0  0
 30 31  2  0  0  0  0
 30 98  1  0  0  0  0
 31 32  1  0  0  0  0
 31 99  1  0  0  0  0
 32 33  1  0  0  0  0
 32 34  1  0  0  0  0
 32100  1  1  0  0  0
 33101  1  0  0  0  0
 33102  1  0  0  0  0
 33103  1  0  0  0  0
 34 35  1  0  0  0  0
 34104  1  0  0  0  0
 34105  1  0  0  0  0
 35 36  1  0  0  0  0
 35 37  1  0  0  0  0
 35106  1  1  0  0  0
 36107  1  0  0  0  0
 36108  1  0  0  0  0
 36109  1  0  0  0  0
 37 38  2  0  0  0  0
 37 39  1  0  0  0  0
 39 40  1  0  0  0  0
 39 42  1  0  0  0  0
 39110  1  6  0  0  0
 40 41  1  0  0  0  0
 41111  1  0  0  0  0
 41112  1  0  0  0  0
 41113  1  0  0  0  0
 42 43  1  0  0  0  0
 42 44  1  0  0  0  0
 42114  1  1  0  0  0
 43115  1  0  0  0  0
 44 45  1  0  0  0  0
 44 46  2  0  0  0  0
 45116  1  0  0  0  0
 45117  1  0  0  0  0
 45118  1  0  0  0  0
 46 47  1  0  0  0  0
 46119  1  0  0  0  0
 47 48  1  0  0  0  0
 47 49  1  0  0  0  0
 47120  1  6  0  0  0
 48121  1  0  0  0  0
 48122  1  0  0  0  0
 48123  1  0  0  0  0
 49 50  2  0  0  0  0
 49 51  1  0  0  0  0
 51 52  1  0  0  0  0
 51124  1  0  0  0  0
 51125  1  0  0  0  0
 52 53  1  0  0  0  0
 52126  1  6  0  0  0
 53 54  1  0  0  0  0
 53 55  1  0  0  0  0
 53127  1  1  0  0  0
 54128  1  0  0  0  0
 54129  1  0  0  0  0
 54130  1  0  0  0  0
 55 56  1  0  0  0  0
 55131  1  0  0  0  0
 55132  1  0  0  0  0
 56 57  1  0  0  0  0
 56 64  1  0  0  0  0
 56133  1  6  0  0  0
 57 58  1  0  0  0  0
 57134  1  0  0  0  0
 57135  1  0  0  0  0
 58 59  1  0  0  0  0
 58 61  1  0  0  0  0
 58136  1  6  0  0  0
 59 60  1  0  0  0  0
 60137  1  0  0  0  0
 60138  1  0  0  0  0
 60139  1  0  0  0  0
 61 62  1  0  0  0  0
 61 63  1  0  0  0  0
 61140  1  1  0  0  0
 62141  1  0  0  0  0
 63 64  1  0  0  0  0
 63142  1  0  0  0  0
 63143  1  0  0  0  0
 64144  1  0  0  0  0
 64145  1  0  0  0  0
 65 66  2  0  0  0  0
 65 68  1  0  0  0  0
 65 69  1  0  0  0  0
 66 67  1  0  0  0  0
 66146  1  0  0  0  0
 67147  1  0  0  0  0
 68148  1  0  0  0  0
 68149  1  0  0  0  0
 68150  1  0  0  0  0
M  END
>  <COMPND>
    title: molecule 1

$$$$
3IQV_ligand0.pdb
 OpenBabel06042612053D

 94 97  0  0  1  0  0  0  0  0999 V2000
  -17.6430  -19.2620   -0.6900 C   0  0  0  0  0  0  0  0  0  0  0  0
  -16.5720  -18.5700   -0.2740 C   0  0  0  0  0  0  0  0  0  0  0  0
  -15.0860  -18.9010   -0.4950 C   0  0  2  0  0  0  0  0  0  0  0  0
  -14.3920  -19.1290    0.8430 C   0  0  0  0  0  0  0  0  0  0  0  0
  -14.4050  -17.8080   -1.2670 C   0  0  0  0  0  0  0  0  0  0  0  0
  -13.1360  -18.2550   -1.8160 O   0  0  0  0  0  0  0  0  0  0  0  0
  -16.9770  -17.3440    0.4600 C   0  0  0  0  0  0  0  0  0  0  0  0
  -18.4150  -17.2110    0.0460 C   0  0  2  0  0  0  0  0  0  0  0  0
  -19.2080  -16.3970    0.9200 O   0  0  0  0  0  0  0  0  0  0  0  0
  -18.9310  -18.6410   -0.2110 C   0  0  1  0  0  0  0  0  0  0  0  0
  -20.0430  -18.6430   -1.2710 C   0  0  0  0  0  0  0  0  0  0  0  0
  -19.4840  -19.2070    1.0610 C   0  0  0  0  0  0  0  0  0  0  0  0
  -19.1080  -20.2500    1.8340 C   0  0  0  0  0  0  0  0  0  0  0  0
  -19.8890  -20.6420    3.0450 C   0  0  1  0  0  0  0  0  0  0  0  0
  -21.4010  -20.7160    2.8230 C   0  0  0  0  0  0  0  0  0  0  0  0
  -22.0590  -21.0200    4.0330 O   0  0  0  0  0  0  0  0  0  0  0  0
  -23.5000  -21.1350    3.9040 C   0  0  0  0  0  0  0  0  0  0  0  0
  -19.2910  -21.9800    3.4900 C   0  0  0  0  0  0  0  0  0  0  0  0
  -17.8660  -21.8910    3.0100 C   0  0  0  0  0  0  0  0  0  0  0  0
  -17.9270  -21.1910    1.6490 C   0  0  1  0  0  0  0  0  0  0  0  0
  -18.0300  -22.1980    0.4700 C   0  0  1  0  0  0  0  0  0  0  0  0
  -19.4580  -22.5330   -0.0110 C   0  0  0  0  0  0  0  0  0  0  0  0
  -17.1250  -21.7680   -0.7510 C   0  0  1  0  0  0  0  0  0  0  0  0
  -16.9900  -22.8920   -1.5950 O   0  0  0  0  0  0  0  0  0  0  0  0
  -17.6240  -20.5050   -1.4930 C   0  0  2  0  0  0  0  0  0  0  0  0
  -16.7230  -20.3420   -2.6430 O   0  0  0  0  0  0  0  0  0  0  0  0
  -17.3300  -20.4470   -3.9360 C   0  0  1  0  0  0  0  0  0  0  0  0
  -18.1020  -19.2800   -4.1870 O   0  0  0  0  0  0  0  0  0  0  0  0
  -17.4270  -18.0440   -4.1860 C   0  0  1  0  0  0  0  0  0  0  0  0
  -16.2280  -18.0350   -5.1690 C   0  0  1  0  0  0  0  0  0  0  0  0
  -15.4880  -16.8410   -4.9070 O   0  0  0  0  0  0  0  0  0  0  0  0
  -15.3670  -19.3090   -4.9500 C   0  0  2  0  0  0  0  0  0  0  0  0
  -14.3900  -19.4020   -6.0110 O   0  0  0  0  0  0  0  0  0  0  0  0
  -16.2730  -20.5390   -4.9740 C   0  0  1  0  0  0  0  0  0  0  0  0
  -15.4750  -21.7330   -4.7670 O   0  0  0  0  0  0  0  0  0  0  0  0
  -18.3970  -16.9410   -4.5250 C   0  0  0  0  0  0  0  0  0  0  0  0
  -18.7810  -17.1230   -5.8910 O   0  0  0  0  0  0  0  0  0  0  0  0
  -19.5130  -16.0450   -6.4660 C   0  0  0  0  0  0  0  0  0  0  0  0
  -19.6400  -16.3410   -7.9630 C   0  0  0  0  0  0  0  0  0  0  0  0
  -18.8850  -14.6500   -6.2010 C   0  0  0  0  0  0  0  0  0  0  0  0
  -20.9400  -16.0580   -5.8570 C   0  0  0  0  0  0  0  0  0  0  0  0
  -21.4740  -14.9470   -5.3880 C   0  0  0  0  0  0  0  0  0  0  0  0
  -14.9980  -19.8180   -1.0710 H   0  0  0  0  0  0  0  0  0  0  0  0
  -13.3680  -19.4710    0.7010 H   0  0  0  0  0  0  0  0  0  0  0  0
  -14.3600  -18.2210    1.4460 H   0  0  0  0  0  0  0  0  0  0  0  0
  -14.9030  -19.8890    1.4290 H   0  0  0  0  0  0  0  0  0  0  0  0
  -14.2400  -16.9380   -0.6280 H   0  0  0  0  0  0  0  0  0  0  0  0
  -15.0390  -17.4820   -2.0910 H   0  0  0  0  0  0  0  0  0  0  0  0
  -12.6840  -18.7570   -1.1510 H   0  0  0  0  0  0  0  0  0  0  0  0
  -16.3970  -16.4650    0.1800 H   0  0  0  0  0  0  0  0  0  0  0  0
  -16.8730  -17.5110    1.5300 H   0  0  0  0  0  0  0  0  0  0  0  0
  -18.4170  -16.6880   -0.9130 H   0  0  0  0  0  0  0  0  0  0  0  0
  -20.1280  -16.5650    0.7570 H   0  0  0  0  0  0  0  0  0  0  0  0
  -20.8740  -18.0200   -0.9510 H   0  0  0  0  0  0  0  0  0  0  0  0
  -19.6970  -18.2820   -2.2340 H   0  0  0  0  0  0  0  0  0  0  0  0
  -20.4600  -19.6350   -1.4170 H   0  0  0  0  0  0  0  0  0  0  0  0
  -20.3550  -18.6650    1.3900 H   0  0  0  0  0  0  0  0  0  0  0  0
  -19.6760  -19.8930    3.8080 H   0  0  0  0  0  0  0  0  0  0  0  0
  -21.6250  -21.4830    2.0850 H   0  0  0  0  0  0  0  0  0  0  0  0
  -21.8090  -19.7810    2.4420 H   0  0  0  0  0  0  0  0  0  0  0  0
  -23.9340  -21.2810    4.8930 H   0  0  0  0  0  0  0  0  0  0  0  0
  -23.9360  -20.2360    3.4670 H   0  0  0  0  0  0  0  0  0  0  0  0
  -23.7650  -21.9950    3.2920 H   0  0  0  0  0  0  0  0  0  0  0  0
  -19.7960  -22.8160    3.0060 H   0  0  0  0  0  0  0  0  0  0  0  0
  -19.3550  -22.1530    4.5600 H   0  0  0  0  0  0  0  0  0  0  0  0
  -17.3840  -22.8610    2.9720 H   0  0  0  0  0  0  0  0  0  0  0  0
  -17.2860  -21.2790    3.7000 H   0  0  0  0  0  0  0  0  0  0  0  0
  -17.0130  -20.6090    1.5610 H   0  0  0  0  0  0  0  0  0  0  0  0
  -17.6020  -23.1400    0.8160 H   0  0  0  0  0  0  0  0  0  0  0  0
  -19.4540  -23.2760   -0.8080 H   0  0  0  0  0  0  0  0  0  0  0  0
  -20.0550  -22.9520    0.7950 H   0  0  0  0  0  0  0  0  0  0  0  0
  -19.9930  -21.6600   -0.3790 H   0  0  0  0  0  0  0  0  0  0  0  0
  -16.1210  -21.5880   -0.3690 H   0  0  0  0  0  0  0  0  0  0  0  0
  -16.3260  -22.6890   -2.2400 H   0  0  0  0  0  0  0  0  0  0  0  0
  -18.6190  -20.7080   -1.8810 H   0  0  0  0  0  0  0  0  0  0  0  0
  -17.9870  -21.3130   -3.9790 H   0  0  0  0  0  0  0  0  0  0  0  0
  -17.0680  -17.8730   -3.1710 H   0  0  0  0  0  0  0  0  0  0  0  0
  -16.5840  -18.0400   -6.1990 H   0  0  0  0  0  0  0  0  0  0  0  0
  -15.1080  -16.9010   -4.0420 H   0  0  0  0  0  0  0  0  0  0  0  0
  -14.8380  -19.2450   -3.9980 H   0  0  0  0  0  0  0  0  0  0  0  0
  -14.0070  -18.5460   -6.1410 H   0  0  0  0  0  0  0  0  0  0  0  0
  -16.7620  -20.6210   -5.9460 H   0  0  0  0  0  0  0  0  0  0  0  0
  -14.6910  -21.6490   -5.2920 H   0  0  0  0  0  0  0  0  0  0  0  0
  -17.8820  -16.0010   -4.3480 H   0  0  0  0  0  0  0  0  0  0  0  0
  -19.2710  -16.9520   -3.8780 H   0  0  0  0  0  0  0  0  0  0  0  0
  -20.2400  -15.5840   -8.4690 H   0  0  0  0  0  0  0  0  0  0  0  0
  -18.6600  -16.3580   -8.4400 H   0  0  0  0  0  0  0  0  0  0  0  0
  -20.1070  -17.3090   -8.1430 H   0  0  0  0  0  0  0  0  0  0  0  0
  -19.3520  -13.8770   -6.8120 H   0  0  0  0  0  0  0  0  0  0  0  0
  -18.9150  -14.3190   -5.1620 H   0  0  0  0  0  0  0  0  0  0  0  0
  -17.8340  -14.6610   -6.4920 H   0  0  0  0  0  0  0  0  0  0  0  0
  -21.4780  -16.9940   -5.8230 H   0  0  0  0  0  0  0  0  0  0  0  0
  -22.4680  -15.0070   -4.9700 H   0  0  0  0  0  0  0  0  0  0  0  0
  -21.0330  -13.9620   -5.3680 H   0  0  0  0  0  0  0  0  0  0  0  0
  1  2  2  0  0  0  0
  1 10  1  0  0  0  0
  1 25  1  0  0  0  0
  2  3  1  0  0  0  0
  2  7  1  0  0  0  0
  3  4  1  0  0  0  0
  3  5  1  0  0  0  0
  3 43  1  6  0  0  0
  4 44  1  0  0  0  0
  4 45  1  0  0  0  0
  4 46  1  0  0  0  0
  5  6  1  0  0  0  0
  5 47  1  0  0  0  0
  5 48  1  0  0  0  0
  6 49  1  0  0  0  0
  7  8  1  0  0  0  0
  7 50  1  0  0  0  0
  7 51  1  0  0  0  0
  8  9  1  0  0  0  0
  8 10  1  0  0  0  0
  8 52  1  6  0  0  0
  9 53  1  0  0  0  0
 10 11  1  6  0  0  0
 10 12  1  0  0  0  0
 11 54  1  0  0  0  0
 11 55  1  0  0  0  0
 11 56  1  0  0  0  0
 12 13  2  0  0  0  0
 12 57  1  0  0  0  0
 13 14  1  0  0  0  0
 13 20  1  0  0  0  0
 14 15  1  0  0  0  0
 14 18  1  0  0  0  0
 14 58  1  1  0  0  0
 15 16  1  0  0  0  0
 15 59  1  0  0  0  0
 15 60  1  0  0  0  0
 16 17  1  0  0  0  0
 17 61  1  0  0  0  0
 17 62  1  0  0  0  0
 17 63  1  0  0  0  0
 18 19  1  0  0  0  0
 18 64  1  0  0  0  0
 18 65  1  0  0  0  0
 19 20  1  0  0  0  0
 19 66  1  0  0  0  0
 19 67  1  0  0  0  0
 20 21  1  0  0  0  0
 20 68  1  6  0  0  0
 21 22  1  0  0  0  0
 21 23  1  0  0  0  0
 21 69  1  1  0  0  0
 22 70  1  0  0  0  0
 22 71  1  0  0  0  0
 22 72  1  0  0  0  0
 23 24  1  0  0  0  0
 23 25  1  0  0  0  0
 23 73  1  1  0  0  0
 24 74  1  0  0  0  0
 25 26  1  0  0  0  0
 25 75  1  6  0  0  0
 26 27  1  0  0  0  0
 27 28  1  0  0  0  0
 27 34  1  0  0  0  0
 27 76  1  6  0  0  0
 28 29  1  0  0  0  0
 29 30  1  0  0  0  0
 29 36  1  0  0  0  0
 29 77  1  1  0  0  0
 30 31  1  0  0  0  0
 30 32  1  0  0  0  0
 30 78  1  6  0  0  0
 31 79  1  0  0  0  0
 32 33  1  0  0  0  0
 32 34  1  0  0  0  0
 32 80  1  1  0  0  0
 33 81  1  0  0  0  0
 34 35  1  0  0  0  0
 34 82  1  6  0  0  0
 35 83  1  0  0  0  0
 36 37  1  0  0  0  0
 36 84  1  0  0  0  0
 36 85  1  0  0  0  0
 37 38  1  0  0  0  0
 38 39  1  0  0  0  0
 38 40  1  0  0  0  0
 38 41  1  0  0  0  0
 39 86  1  0  0  0  0
 39 87  1  0  0  0  0
 39 88  1  0  0  0  0
 40 89  1  0  0  0  0
 40 90  1  0  0  0  0
 40 91  1  0  0  0  0
 41 42  2  0  0  0  0
 41 92  1  0  0  0  0
 42 93  1  0  0  0  0
 42 94  1  0  0  0  0
M  END
>  <COMPND>
    title: molecule 1

$$$$
3JRQ_ligand0.pdb
 OpenBabel06042612053D

 38 38  0  0  1  0  0  0  0  0999 V2000
  -10.1320  -28.9000    2.4430 C   0  0  0  0  0  0  0  0  0  0  0  0
  -10.2500  -29.4720    3.8390 C   0  0  0  0  0  0  0  0  0  0  0  0
   -8.9250  -29.6790    4.5790 C   0  0  0  0  0  0  0  0  0  0  0  0
   -8.2660  -28.3400    4.9200 C   0  0  0  0  0  0  0  0  0  0  0  0
   -6.9700  -28.3480    5.2430 C   0  0  0  0  0  0  0  0  0  0  0  0
   -9.1380  -30.6220    5.7630 C   0  0  0  0  0  0  0  0  0  0  0  0
   -6.0680  -27.1680    5.5530 C   0  0  1  0  0  0  0  0  0  0  0  0
   -6.2960  -26.1480    4.6020 O   0  0  0  0  0  0  0  0  0  0  0  0
   -6.3680  -26.4670    6.8470 C   0  0  0  0  0  0  0  0  0  0  0  0
   -5.6510  -27.0500    7.7560 C   0  0  0  0  0  0  0  0  0  0  0  0
   -4.5740  -27.7400    7.9760 C   0  0  0  0  0  0  0  0  0  0  0  0
   -3.9900  -27.9190    9.1500 O   0  0  0  0  0  0  0  0  0  0  0  0
   -4.1420  -28.3290    6.8500 C   0  0  0  0  0  0  0  0  0  0  0  0
  -10.9720  -29.2470    1.5840 O   0  5  0  0  0  0  0  0  0  0  0  0
   -4.5740  -27.6480    5.5550 C   0  0  0  0  0  0  0  0  0  0  0  0
   -9.2240  -28.0720    2.1950 O   0  0  0  0  0  0  0  0  0  0  0  0
   -7.3430  -25.3040    6.8970 C   0  0  0  0  0  0  0  0  0  0  0  0
   -3.5420  -26.5320    5.3900 C   0  0  0  0  0  0  0  0  0  0  0  0
   -4.3780  -28.6190    4.4190 C   0  0  0  0  0  0  0  0  0  0  0  0
  -11.1660  -29.8520    4.1780 H   0  0  0  0  0  0  0  0  0  0  0  0
   -8.8160  -27.4130    4.8590 H   0  0  0  0  0  0  0  0  0  0  0  0
   -6.5550  -29.3360    5.3280 H   0  0  0  0  0  0  0  0  0  0  0  0
   -8.3750  -30.4790    6.5280 H   0  0  0  0  0  0  0  0  0  0  0  0
  -10.1090  -30.4680    6.2270 H   0  0  0  0  0  0  0  0  0  0  0  0
   -9.0890  -31.6570    5.4270 H   0  0  0  0  0  0  0  0  0  0  0  0
   -6.2390  -26.5280    3.7380 H   0  0  0  0  0  0  0  0  0  0  0  0
   -5.9170  -26.5920    8.6980 H   0  0  0  0  0  0  0  0  0  0  0  0
   -4.5600  -29.3170    6.8520 H   0  0  0  0  0  0  0  0  0  0  0  0
   -3.0650  -28.4570    6.8800 H   0  0  0  0  0  0  0  0  0  0  0  0
   -7.5470  -25.0220    7.9300 H   0  0  0  0  0  0  0  0  0  0  0  0
   -6.9330  -24.4280    6.3940 H   0  0  0  0  0  0  0  0  0  0  0  0
   -8.2910  -25.5690    6.4290 H   0  0  0  0  0  0  0  0  0  0  0  0
   -2.5210  -26.9090    5.3220 H   0  0  0  0  0  0  0  0  0  0  0  0
   -3.7250  -25.9450    4.4910 H   0  0  0  0  0  0  0  0  0  0  0  0
   -3.5640  -25.8460    6.2320 H   0  0  0  0  0  0  0  0  0  0  0  0
   -3.3160  -28.7290    4.1930 H   0  0  0  0  0  0  0  0  0  0  0  0
   -4.6920  -29.6410    4.6060 H   0  0  0  0  0  0  0  0  0  0  0  0
   -4.8440  -28.2710    3.4960 H   0  0  0  0  0  0  0  0  0  0  0  0
  1  2  1  0  0  0  0
  1 14  1  0  0  0  0
  1 16  2  0  0  0  0
  2  3  2  0  0  0  0
  2 20  1  0  0  0  0
  3  4  1  0  0  0  0
  3  6  1  0  0  0  0
  4  5  2  0  0  0  0
  4 21  1  0  0  0  0
  5 22  1  0  0  0  0
  6 23  1  0  0  0  0
  6 24  1  0  0  0  0
  6 25  1  0  0  0  0
  7  5  1  6  0  0  0
  7  8  1  0  0  0  0
  7  9  1  0  0  0  0
  7 15  1  0  0  0  0
  8 26  1  0  0  0  0
  9 10  2  0  0  0  0
  9 17  1  0  0  0  0
 10 11  1  0  0  0  0
 10 27  1  0  0  0  0
 11 12  2  0  0  0  0
 11 13  1  0  0  0  0
 13 15  1  0  0  0  0
 13 28  1  0  0  0  0
 13 29  1  0  0  0  0
 15 18  1  0  0  0  0
 15 19  1  0  0  0  0
 17 30  1  0  0  0  0
 17 31  1  0  0  0  0
 17 32  1  0  0  0  0
 18 33  1  0  0  0  0
 18 34  1  0  0  0  0
 18 35  1  0  0  0  0
 19 36  1  0  0  0  0
 19 37  1  0  0  0  0
 19 38  1  0  0  0  0
M  CHG  1  14  -1
M  END
>  <COMPND>
    title: molecule 1

$$$$
3KB3_ligand0.pdb
 OpenBabel06042612053D

 38 38  0  0  1  0  0  0  0  0999 V2000
   18.0170  -11.7270   -9.9900 C   0  0  0  0  0  0  0  0  0  0  0  0
   18.6480  -10.6200  -10.7960 C   0  0  0  0  0  0  0  0  0  0  0  0
   19.3900  -10.7880  -11.9070 C   0  0  0  0  0  0  0  0  0  0  0  0
   19.5690  -12.0350  -12.6930 C   0  0  0  0  0  0  0  0  0  0  0  0
   20.2580  -12.1450  -13.8370 C   0  0  0  0  0  0  0  0  0  0  0  0
   20.0500   -9.6120  -12.5410 C   0  0  0  0  0  0  0  0  0  0  0  0
   20.3930  -13.4820  -14.6040 C   0  0  1  0  0  0  0  0  0  0  0  0
   19.6200  -14.4680  -13.9610 O   0  0  0  0  0  0  0  0  0  0  0  0
   19.7740  -13.2450  -15.9750 C   0  0  0  0  0  0  0  0  0  0  0  0
   20.5320  -12.8870  -17.0430 C   0  0  0  0  0  0  0  0  0  0  0  0
   22.0250  -12.7160  -16.8570 C   0  0  0  0  0  0  0  0  0  0  0  0
   22.6880  -12.2560  -17.7900 O   0  0  0  0  0  0  0  0  0  0  0  0
   22.7640  -13.1250  -15.5600 C   0  0  0  0  0  0  0  0  0  0  0  0
   17.7020  -11.5510   -8.7820 O   0  5  0  0  0  0  0  0  0  0  0  0
   21.8400  -13.7630  -14.5950 C   0  0  0  0  0  0  0  0  0  0  0  0
   17.8050  -12.7890  -10.5770 O   0  0  0  0  0  0  0  0  0  0  0  0
   18.3230  -13.5620  -16.1810 C   0  0  0  0  0  0  0  0  0  0  0  0
   22.4920  -14.0350  -13.2720 C   0  0  0  0  0  0  0  0  0  0  0  0
   21.9130  -15.2020  -15.3780 C   0  0  0  0  0  0  0  0  0  0  0  0
   18.5310   -9.6250  -10.3980 H   0  0  0  0  0  0  0  0  0  0  0  0
   19.1320  -12.9300  -12.3290 H   0  0  0  0  0  0  0  0  0  0  0  0
   20.7550  -11.3000  -14.2880 H   0  0  0  0  0  0  0  0  0  0  0  0
   21.1310   -9.7380  -12.5470 H   0  0  0  0  0  0  0  0  0  0  0  0
   19.6950   -9.4430  -13.5580 H   0  0  0  0  0  0  0  0  0  0  0  0
   19.8370   -8.7060  -11.9750 H   0  0  0  0  0  0  0  0  0  0  0  0
   19.9200  -14.5740  -13.0680 H   0  0  0  0  0  0  0  0  0  0  0  0
   20.1150  -12.7590  -18.0310 H   0  0  0  0  0  0  0  0  0  0  0  0
   23.1370  -12.2010  -15.1200 H   0  0  0  0  0  0  0  0  0  0  0  0
   23.6470  -13.7140  -15.7620 H   0  0  0  0  0  0  0  0  0  0  0  0
   17.9860  -13.2640  -17.1740 H   0  0  0  0  0  0  0  0  0  0  0  0
   18.1360  -14.6320  -16.0790 H   0  0  0  0  0  0  0  0  0  0  0  0
   17.7100  -13.0290  -15.4550 H   0  0  0  0  0  0  0  0  0  0  0  0
   23.5020  -14.4320  -13.3900 H   0  0  0  0  0  0  0  0  0  0  0  0
   22.5810  -13.1230  -12.6810 H   0  0  0  0  0  0  0  0  0  0  0  0
   21.9310  -14.7550  -12.6760 H   0  0  0  0  0  0  0  0  0  0  0  0
   22.9270  -15.6010  -15.4510 H   0  0  0  0  0  0  0  0  0  0  0  0
   21.3820  -15.9770  -14.8250 H   0  0  0  0  0  0  0  0  0  0  0  0
   21.4970  -15.2260  -16.3810 H   0  0  0  0  0  0  0  0  0  0  0  0
  1  2  1  0  0  0  0
  1 14  1  0  0  0  0
  1 16  2  0  0  0  0
  2  3  2  0  0  0  0
  2 20  1  0  0  0  0
  3  4  1  0  0  0  0
  3  6  1  0  0  0  0
  4  5  2  0  0  0  0
  4 21  1  0  0  0  0
  5 22  1  0  0  0  0
  6 23  1  0  0  0  0
  6 24  1  0  0  0  0
  6 25  1  0  0  0  0
  7  5  1  1  0  0  0
  7  8  1  0  0  0  0
  7  9  1  0  0  0  0
  7 15  1  0  0  0  0
  8 26  1  0  0  0  0
  9 10  2  0  0  0  0
  9 17  1  0  0  0  0
 10 11  1  0  0  0  0
 10 27  1  0  0  0  0
 11 12  2  0  0  0  0
 11 13  1  0  0  0  0
 13 15  1  0  0  0  0
 13 28  1  0  0  0  0
 13 29  1  0  0  0  0
 15 18  1  0  0  0  0
 15 19  1  0  0  0  0
 17 30  1  0  0  0  0
 17 31  1  0  0  0  0
 17 32  1  0  0  0  0
 18 33  1  0  0  0  0
 18 34  1  0  0  0  0
 18 35  1  0  0  0  0
 19 36  1  0  0  0  0
 19 37  1  0  0  0  0
 19 38  1  0  0  0  0
M  CHG  1  14  -1
M  END
>  <COMPND>
    title: molecule 1

$$$$
3KDJ_ligand0.pdb
 OpenBabel06042612053D

 38 38  0  0  1  0  0  0  0  0999 V2000
    3.9680   14.3860   13.0390 C   0  0  0  0  0  0  0  0  0  0  0  0
    4.9020   13.2280   12.9450 C   0  0  0  0  0  0  0  0  0  0  0  0
    4.6990   11.9940   13.4550 C   0  0  0  0  0  0  0  0  0  0  0  0
    3.4690   11.6250   14.1990 C   0  0  0  0  0  0  0  0  0  0  0  0
    3.4780   10.5310   14.9630 C   0  0  0  0  0  0  0  0  0  0  0  0
    5.7650   10.9480   13.2710 C   0  0  0  0  0  0  0  0  0  0  0  0
    2.2590   10.1280   15.7560 C   0  0  1  0  0  0  0  0  0  0  0  0
    1.4490   11.2990   15.8600 O   0  0  0  0  0  0  0  0  0  0  0  0
    1.4960    9.0520   15.0350 C   0  0  0  0  0  0  0  0  0  0  0  0
    1.7660    7.7570   15.2780 C   0  0  0  0  0  0  0  0  0  0  0  0
    2.7380    7.3470   16.3150 C   0  0  0  0  0  0  0  0  0  0  0  0
    3.0260    6.1660   16.4840 O   0  0  0  0  0  0  0  0  0  0  0  0
    3.3940    8.3700   17.2080 C   0  0  0  0  0  0  0  0  0  0  0  0
    2.7890   14.2350   13.4340 O   0  5  0  0  0  0  0  0  0  0  0  0
    2.6590    9.7040   17.1700 C   0  0  0  0  0  0  0  0  0  0  0  0
    4.3880   15.5260   12.7130 O   0  0  0  0  0  0  0  0  0  0  0  0
    0.4370    9.4400   14.0480 C   0  0  0  0  0  0  0  0  0  0  0  0
    3.5570   10.7680   17.7900 C   0  0  0  0  0  0  0  0  0  0  0  0
    1.4020    9.5480   18.0150 C   0  0  0  0  0  0  0  0  0  0  0  0
    5.8220   13.4100   12.4110 H   0  0  0  0  0  0  0  0  0  0  0  0
    2.5610   12.1720   14.0930 H   0  0  0  0  0  0  0  0  0  0  0  0
    4.3470    9.9010   15.0670 H   0  0  0  0  0  0  0  0  0  0  0  0
    5.3360    9.9870   12.9820 H   0  0  0  0  0  0  0  0  0  0  0  0
    6.4700   11.2290   12.4870 H   0  0  0  0  0  0  0  0  0  0  0  0
    6.3330   10.8260   14.1920 H   0  0  0  0  0  0  0  0  0  0  0  0
    2.0080   12.0340   16.0760 H   0  0  0  0  0  0  0  0  0  0  0  0
    1.2300    6.9760   14.7580 H   0  0  0  0  0  0  0  0  0  0  0  0
    4.4190    8.4820   16.8770 H   0  0  0  0  0  0  0  0  0  0  0  0
    3.4410    7.9970   18.2270 H   0  0  0  0  0  0  0  0  0  0  0  0
    0.0470    8.5720   13.5150 H   0  0  0  0  0  0  0  0  0  0  0  0
   -0.3990    9.9210   14.5570 H   0  0  0  0  0  0  0  0  0  0  0  0
    0.8350   10.1330   13.3080 H   0  0  0  0  0  0  0  0  0  0  0  0
    3.7790   10.5150   18.8280 H   0  0  0  0  0  0  0  0  0  0  0  0
    4.5230   10.8610   17.2940 H   0  0  0  0  0  0  0  0  0  0  0  0
    3.0940   11.7540   17.8100 H   0  0  0  0  0  0  0  0  0  0  0  0
    1.6460    9.2050   19.0220 H   0  0  0  0  0  0  0  0  0  0  0  0
    0.8510   10.4800   18.1410 H   0  0  0  0  0  0  0  0  0  0  0  0
    0.7250    8.8130   17.5910 H   0  0  0  0  0  0  0  0  0  0  0  0
  1  2  1  0  0  0  0
  1 14  1  0  0  0  0
  1 16  2  0  0  0  0
  2  3  2  0  0  0  0
  2 20  1  0  0  0  0
  3  4  1  0  0  0  0
  3  6  1  0  0  0  0
  4  5  2  0  0  0  0
  4 21  1  0  0  0  0
  5 22  1  0  0  0  0
  6 23  1  0  0  0  0
  6 24  1  0  0  0  0
  6 25  1  0  0  0  0
  7  5  1  6  0  0  0
  7  8  1  0  0  0  0
  7  9  1  0  0  0  0
  7 15  1  0  0  0  0
  8 26  1  0  0  0  0
  9 10  2  0  0  0  0
  9 17  1  0  0  0  0
 10 11  1  0  0  0  0
 10 27  1  0  0  0  0
 11 12  2  0  0  0  0
 11 13  1  0  0  0  0
 13 15  1  0  0  0  0
 13 28  1  0  0  0  0
 13 29  1  0  0  0  0
 15 18  1  0  0  0  0
 15 19  1  0  0  0  0
 17 30  1  0  0  0  0
 17 31  1  0  0  0  0
 17 32  1  0  0  0  0
 18 33  1  0  0  0  0
 18 34  1  0  0  0  0
 18 35  1  0  0  0  0
 19 36  1  0  0  0  0
 19 37  1  0  0  0  0
 19 38  1  0  0  0  0
M  CHG  1  14  -1
M  END
>  <COMPND>
    title: molecule 1

$$$$
3KMZ_ligand0.pdb
 OpenBabel06042612053D

 54 57  0  0  0  0  0  0  0  0999 V2000
  -44.3140   39.5170   -7.1260 C   0  0  0  0  0  0  0  0  0  0  0  0
  -44.5530   38.9810   -9.5340 C   0  0  0  0  0  0  0  0  0  0  0  0
  -33.5170   46.4400  -11.8930 O   0  5  0  0  0  0  0  0  0  0  0  0
  -32.5380   44.5530  -12.2330 O   0  0  0  0  0  0  0  0  0  0  0  0
  -39.6960   37.5890   -7.5150 C   0  0  0  0  0  0  0  0  0  0  0  0
  -38.6240   37.3140   -7.0480 C   0  0  0  0  0  0  0  0  0  0  0  0
  -37.9040   42.1510   -9.5660 C   0  0  0  0  0  0  0  0  0  0  0  0
  -39.1570   42.5690   -9.3610 C   0  0  0  0  0  0  0  0  0  0  0  0
  -41.9530   37.2210   -7.6290 C   0  0  0  0  0  0  0  0  0  0  0  0
  -34.9380   36.2160   -5.6120 C   0  0  0  0  0  0  0  0  0  0  0  0
  -35.5970   35.4180   -6.5530 C   0  0  0  0  0  0  0  0  0  0  0  0
  -35.5550   37.3800   -5.1500 C   0  0  0  0  0  0  0  0  0  0  0  0
  -36.8530   35.7890   -7.0450 C   0  0  0  0  0  0  0  0  0  0  0  0
  -36.8160   37.7520   -5.6370 C   0  0  0  0  0  0  0  0  0  0  0  0
  -36.8780   44.4480  -10.0830 C   0  0  0  0  0  0  0  0  0  0  0  0
  -35.7050   42.4030  -10.5770 C   0  0  0  0  0  0  0  0  0  0  0  0
  -41.5300   42.0010   -9.3080 C   0  0  0  0  0  0  0  0  0  0  0  0
  -35.7940   45.1720  -10.6300 C   0  0  0  0  0  0  0  0  0  0  0  0
  -34.6360   43.1110  -11.1070 C   0  0  0  0  0  0  0  0  0  0  0  0
  -42.6040   41.1480   -9.0900 C   0  0  0  0  0  0  0  0  0  0  0  0
  -40.0000   40.3000   -8.5590 C   0  0  0  0  0  0  0  0  0  0  0  0
  -43.2530   37.6480   -7.9050 C   0  0  0  0  0  0  0  0  0  0  0  0
  -33.4930   45.2080  -11.7640 C   0  0  0  0  0  0  0  0  0  0  0  0
  -40.8610   38.0510   -7.8200 C   0  0  0  0  0  0  0  0  0  0  0  0
  -37.4630   36.9640   -6.5910 C   0  0  0  0  0  0  0  0  0  0  0  0
  -36.8130   43.0510  -10.0370 C   0  0  0  0  0  0  0  0  0  0  0  0
  -40.2320   41.5990   -9.0240 C   0  0  0  0  0  0  0  0  0  0  0  0
  -34.6680   44.5010  -11.1400 C   0  0  0  0  0  0  0  0  0  0  0  0
  -41.0870   39.4340   -8.3380 C   0  0  0  0  0  0  0  0  0  0  0  0
  -42.4040   39.8520   -8.6090 C   0  0  0  0  0  0  0  0  0  0  0  0
  -43.5820   38.9940   -8.3580 C   0  0  0  0  0  0  0  0  0  0  0  0
  -43.7160   39.4260   -6.2220 H   0  0  0  0  0  0  0  0  0  0  0  0
  -44.5760   40.5710   -7.2310 H   0  0  0  0  0  0  0  0  0  0  0  0
  -45.2560   38.9940   -6.9550 H   0  0  0  0  0  0  0  0  0  0  0  0
  -44.0330   38.7600  -10.4590 H   0  0  0  0  0  0  0  0  0  0  0  0
  -45.3370   38.2350   -9.4030 H   0  0  0  0  0  0  0  0  0  0  0  0
  -45.0590   39.9360   -9.6660 H   0  0  0  0  0  0  0  0  0  0  0  0
  -37.6390   41.1160   -9.4330 H   0  0  0  0  0  0  0  0  0  0  0  0
  -39.4330   43.6060   -9.4690 H   0  0  0  0  0  0  0  0  0  0  0  0
  -41.8400   36.2040   -7.2790 H   0  0  0  0  0  0  0  0  0  0  0  0
  -33.9670   35.9280   -5.2360 H   0  0  0  0  0  0  0  0  0  0  0  0
  -35.1290   34.5110   -6.9090 H   0  0  0  0  0  0  0  0  0  0  0  0
  -35.0410   37.9680   -4.4150 H   0  0  0  0  0  0  0  0  0  0  0  0
  -37.3350   35.1730   -7.7880 H   0  0  0  0  0  0  0  0  0  0  0  0
  -37.2730   38.6610   -5.2720 H   0  0  0  0  0  0  0  0  0  0  0  0
  -37.7260   44.9820   -9.6930 H   0  0  0  0  0  0  0  0  0  0  0  0
  -35.6570   41.3280  -10.6020 H   0  0  0  0  0  0  0  0  0  0  0  0
  -41.7200   42.9900   -9.6980 H   0  0  0  0  0  0  0  0  0  0  0  0
  -35.8430   46.2510  -10.6600 H   0  0  0  0  0  0  0  0  0  0  0  0
  -33.7800   42.5590  -11.4590 H   0  0  0  0  0  0  0  0  0  0  0  0
  -43.5960   41.5160   -9.3030 H   0  0  0  0  0  0  0  0  0  0  0  0
  -38.9930   39.9780   -8.3470 H   0  0  0  0  0  0  0  0  0  0  0  0
  -43.8880   37.2640   -7.1020 H   0  0  0  0  0  0  0  0  0  0  0  0
  -43.5060   36.9730   -8.7250 H   0  0  0  0  0  0  0  0  0  0  0  0
  1 31  1  0  0  0  0
  1 32  1  0  0  0  0
  1 33  1  0  0  0  0
  1 34  1  0  0  0  0
  2 31  1  0  0  0  0
  2 35  1  0  0  0  0
  2 36  1  0  0  0  0
  2 37  1  0  0  0  0
  3 23  1  0  0  0  0
  4 23  2  0  0  0  0
  5  6  3  0  0  0  0
  5 24  1  0  0  0  0
  6 25  1  0  0  0  0
  7  8  2  0  0  0  0
  7 26  1  0  0  0  0
  7 38  1  0  0  0  0
  8 27  1  0  0  0  0
  8 39  1  0  0  0  0
  9 22  1  0  0  0  0
  9 24  2  0  0  0  0
  9 40  1  0  0  0  0
 10 11  2  0  0  0  0
 10 12  1  0  0  0  0
 10 41  1  0  0  0  0
 11 13  1  0  0  0  0
 11 42  1  0  0  0  0
 12 14  2  0  0  0  0
 12 43  1  0  0  0  0
 13 25  2  0  0  0  0
 13 44  1  0  0  0  0
 14 25  1  0  0  0  0
 14 45  1  0  0  0  0
 15 18  2  0  0  0  0
 15 26  1  0  0  0  0
 15 46  1  0  0  0  0
 16 19  1  0  0  0  0
 16 26  2  0  0  0  0
 16 47  1  0  0  0  0
 17 20  1  0  0  0  0
 17 27  2  0  0  0  0
 17 48  1  0  0  0  0
 18 28  1  0  0  0  0
 18 49  1  0  0  0  0
 19 28  2  0  0  0  0
 19 50  1  0  0  0  0
 20 30  2  0  0  0  0
 20 51  1  0  0  0  0
 21 27  1  0  0  0  0
 21 29  2  0  0  0  0
 21 52  1  0  0  0  0
 22 31  1  0  0  0  0
 22 53  1  0  0  0  0
 22 54  1  0  0  0  0
 23 28  1  0  0  0  0
 24 29  1  0  0  0  0
 29 30  1  0  0  0  0
 30 31  1  0  0  0  0
M  CHG  1   3  -1
M  END
>  <COMPND>
    title: molecule 1

$$$$
3M50_ligand0.pdb
 OpenBabel06042612053D

 46 46  0  0  1  0  0  0  0  0999 V2000
   -1.3560  -33.6010    8.5950 C   0  0  0  0  0  0  0  0  0  0  0  0
   -0.7150  -35.9700    9.1100 N   0  0  0  0  0  0  0  0  0  0  0  0
   -1.0710  -33.9180    7.4160 O   0  5  0  0  0  0  0  0  0  0  0  0
   -1.0710  -34.6420    9.6910 C   0  0  1  0  0  0  0  0  0  0  0  0
    0.0150  -34.0840   10.6370 C   0  0  0  0  0  0  0  0  0  0  0  0
   -0.6060  -32.8930   11.4090 C   0  0  0  0  0  0  0  0  0  0  0  0
   -2.2950  -39.0780    8.1300 O   0  0  0  0  0  0  0  0  0  0  0  0
   -2.8410  -36.7910    9.1090 O   0  0  0  0  0  0  0  0  0  0  0  0
   -0.4240  -38.5780   10.6410 N   0  3  0  0  0  0  0  0  0  0  0  0
   -0.1210  -38.9190    9.2410 C   0  0  1  0  0  0  0  0  0  0  0  0
   -1.1440  -38.2420    8.3000 C   0  0  2  0  0  0  0  0  0  0  0  0
    1.3220  -38.4880    8.9230 C   0  0  0  0  0  0  0  0  0  0  0  0
   -1.6400  -36.9190    8.8800 C   0  0  0  0  0  0  0  0  0  0  0  0
    2.2160  -39.6730    8.5090 C   0  0  0  0  0  0  0  0  0  0  0  0
    2.1170  -40.2180    7.2300 C   0  0  0  0  0  0  0  0  0  0  0  0
    3.1350  -40.1980    9.4100 C   0  0  0  0  0  0  0  0  0  0  0  0
    2.9220  -41.2800    6.8420 C   0  0  0  0  0  0  0  0  0  0  0  0
    3.9380  -41.2620    9.0190 C   0  0  0  0  0  0  0  0  0  0  0  0
    3.8380  -41.8030    7.7390 C   0  0  0  0  0  0  0  0  0  0  0  0
   -0.5540  -33.0780   12.9450 C   0  0  0  0  0  0  0  0  0  0  0  0
    0.0020  -31.5510   10.9600 C   0  0  0  0  0  0  0  0  0  0  0  0
   -1.8370  -32.5010    8.9690 O   0  0  0  0  0  0  0  0  0  0  0  0
    0.2440  -36.1190    8.8360 H   0  0  0  0  0  0  0  0  0  0  0  0
   -2.0330  -34.8510   10.1700 H   0  0  0  0  0  0  0  0  0  0  0  0
    0.9080  -33.8050   10.0780 H   0  0  0  0  0  0  0  0  0  0  0  0
    0.3630  -34.8640   11.3080 H   0  0  0  0  0  0  0  0  0  0  0  0
   -1.4940  -33.4690   11.3010 H   0  0  0  0  0  0  0  0  0  0  0  0
   -2.9130  -38.8800    8.8210 H   0  0  0  0  0  0  0  0  0  0  0  0
    0.2500  -39.0430   11.2490 H   0  0  0  0  0  0  0  0  0  0  0  0
   -0.3680  -37.5790   10.7790 H   0  0  0  0  0  0  0  0  0  0  0  0
   -1.3530  -38.8990   10.8720 H   0  0  0  0  0  0  0  0  0  0  0  0
   -0.2050  -40.0030    9.1480 H   0  0  0  0  0  0  0  0  0  0  0  0
   -0.6960  -38.0570    7.3260 H   0  0  0  0  0  0  0  0  0  0  0  0
    1.7840  -37.9840    9.7740 H   0  0  0  0  0  0  0  0  0  0  0  0
    1.3550  -37.7540    8.1170 H   0  0  0  0  0  0  0  0  0  0  0  0
    1.3990  -39.8060    6.5410 H   0  0  0  0  0  0  0  0  0  0  0  0
    3.2500  -39.7750   10.3980 H   0  0  0  0  0  0  0  0  0  0  0  0
    2.8290  -41.7000    5.8510 H   0  0  0  0  0  0  0  0  0  0  0  0
    4.6950  -41.6140    9.6840 H   0  0  0  0  0  0  0  0  0  0  0  0
    4.4870  -42.6130    7.4410 H   0  0  0  0  0  0  0  0  0  0  0  0
   -0.5460  -32.1170   13.4620 H   0  0  0  0  0  0  0  0  0  0  0  0
   -1.4120  -33.6060   13.3580 H   0  0  0  0  0  0  0  0  0  0  0  0
    0.3630  -33.5670   13.2590 H   0  0  0  0  0  0  0  0  0  0  0  0
    0.4160  -30.9630   11.7750 H   0  0  0  0  0  0  0  0  0  0  0  0
    0.7390  -31.6680   10.1730 H   0  0  0  0  0  0  0  0  0  0  0  0
   -0.7040  -30.8770   10.4770 H   0  0  0  0  0  0  0  0  0  0  0  0
  1  3  1  0  0  0  0
  1  4  1  0  0  0  0
  1 22  2  0  0  0  0
  2  4  1  0  0  0  0
  2 13  1  0  0  0  0
  2 23  1  0  0  0  0
  4  5  1  0  0  0  0
  4 24  1  1  0  0  0
  5  6  1  0  0  0  0
  5 25  1  0  0  0  0
  5 26  1  0  0  0  0
  6 20  1  0  0  0  0
  6 21  1  0  0  0  0
  6 27  1  0  0  0  0
  7 11  1  0  0  0  0
  7 28  1  0  0  0  0
  8 13  2  0  0  0  0
  9 10  1  0  0  0  0
  9 29  1  0  0  0  0
  9 30  1  0  0  0  0
  9 31  1  0  0  0  0
 10 11  1  0  0  0  0
 10 12  1  0  0  0  0
 10 32  1  6  0  0  0
 11 13  1  0  0  0  0
 11 33  1  6  0  0  0
 12 14  1  0  0  0  0
 12 34  1  0  0  0  0
 12 35  1  0  0  0  0
 14 15  2  0  0  0  0
 14 16  1  0  0  0  0
 15 17  1  0  0  0  0
 15 36  1  0  0  0  0
 16 18  2  0  0  0  0
 16 37  1  0  0  0  0
 17 19  2  0  0  0  0
 17 38  1  0  0  0  0
 18 19  1  0  0  0  0
 18 39  1  0  0  0  0
 19 40  1  0  0  0  0
 20 41  1  0  0  0  0
 20 42  1  0  0  0  0
 20 43  1  0  0  0  0
 21 44  1  0  0  0  0
 21 45  1  0  0  0  0
 21 46  1  0  0  0  0
M  CHG  2   3  -1   9   1
M  END
>  <COMPND>
    title: molecule 1

$$$$
3M51_ligand0.pdb
 OpenBabel06042612053D

 50 53  0  0  1  0  0  0  0  0999 V2000
   -0.7760  -32.0720   11.0760 O   0  5  0  0  0  0  0  0  0  0  0  0
   -3.6090  -24.3030   11.5950 O   0  5  0  0  0  0  0  0  0  0  0  0
   -6.4600  -28.7260    9.0640 O   0  0  0  0  0  0  0  0  0  0  0  0
    1.5130  -28.6630    8.3240 O   0  0  0  0  0  0  0  0  0  0  0  0
   -1.6080  -32.5860    9.0870 O   0  0  0  0  0  0  0  0  0  0  0  0
   -6.5290  -25.8270    8.8740 O   0  0  0  0  0  0  0  0  0  0  0  0
   -3.7580  -33.7100   11.4900 O   0  0  0  0  0  0  0  0  0  0  0  0
    1.8320  -26.2760    8.8850 O   0  0  0  0  0  0  0  0  0  0  0  0
   -6.5270  -21.7610    8.3520 C   0  0  0  0  0  0  0  0  0  0  0  0
   -5.8020  -22.7970    7.7710 C   0  0  0  0  0  0  0  0  0  0  0  0
   -6.5960  -21.6490    9.7400 C   0  0  0  0  0  0  0  0  0  0  0  0
   -5.1500  -23.7130    8.5840 C   0  0  0  0  0  0  0  0  0  0  0  0
   -5.9400  -22.5690   10.5550 C   0  0  0  0  0  0  0  0  0  0  0  0
   -5.2600  -31.8650   11.6530 C   0  0  0  0  0  0  0  0  0  0  0  0
   -2.4070  -28.2990    9.6340 C   0  0  0  0  0  0  0  0  0  0  0  0
   -1.7430  -26.3970   10.9630 C   0  0  0  0  0  0  0  0  0  0  0  0
   -5.5480  -30.5210   11.4380 C   0  0  0  0  0  0  0  0  0  0  0  0
   -1.1430  -28.3400    9.0610 C   0  0  0  0  0  0  0  0  0  0  0  0
   -0.4780  -26.4360   10.3890 C   0  0  0  0  0  0  0  0  0  0  0  0
   -3.3650  -30.2240   10.4610 C   0  0  0  0  0  0  0  0  0  0  0  0
   -1.7120  -32.1220   10.2460 C   0  0  0  0  0  0  0  0  0  0  0  0
   -5.7320  -26.5980    9.6650 C   0  0  0  0  0  0  0  0  0  0  0  0
   -4.4790  -24.6420   10.7960 C   0  0  0  0  0  0  0  0  0  0  0  0
   -5.7290  -27.9880    9.7220 C   0  0  0  0  0  0  0  0  0  0  0  0
   -4.7980  -26.1160   10.5620 C   0  0  0  0  0  0  0  0  0  0  0  0
   -4.0270  -32.3910   11.2730 C   0  0  0  0  0  0  0  0  0  0  0  0
   -5.2250  -23.6040    9.9690 C   0  0  0  0  0  0  0  0  0  0  0  0
   -2.7020  -27.3320   10.5900 C   0  0  0  0  0  0  0  0  0  0  0  0
   -3.0770  -31.5650   10.6740 C   0  0  0  0  0  0  0  0  0  0  0  0
   -4.5940  -29.7020   10.8470 C   0  0  0  0  0  0  0  0  0  0  0  0
   -0.1820  -27.4090    9.4390 C   0  0  0  0  0  0  0  0  0  0  0  0
   -4.0960  -27.2960   11.2000 C   0  0  2  0  0  0  0  0  0  0  0  0
   -4.8470  -28.4170   10.6220 N   0  0  0  0  0  0  0  0  0  0  0  0
    1.0270  -27.4490    8.8920 N   0  0  0  0  0  0  0  0  0  0  0  0
    1.1490  -28.6920    7.4520 H   0  0  0  0  0  0  0  0  0  0  0  0
   -2.9300  -33.9700   11.1160 H   0  0  0  0  0  0  0  0  0  0  0  0
    1.5070  -25.7560    8.1660 H   0  0  0  0  0  0  0  0  0  0  0  0
   -7.0490  -21.0490    7.7300 H   0  0  0  0  0  0  0  0  0  0  0  0
   -5.7420  -23.0130    6.7440 H   0  0  0  0  0  0  0  0  0  0  0  0
   -7.1550  -20.8390   10.1850 H   0  0  0  0  0  0  0  0  0  0  0  0
   -4.5670  -24.4990    8.1260 H   0  0  0  0  0  0  0  0  0  0  0  0
   -5.9860  -22.4790   11.6300 H   0  0  0  0  0  0  0  0  0  0  0  0
   -5.9990  -32.5020   12.1170 H   0  0  0  0  0  0  0  0  0  0  0  0
   -3.1510  -28.6450    8.9240 H   0  0  0  0  0  0  0  0  0  0  0  0
   -1.9090  -25.7790   11.7900 H   0  0  0  0  0  0  0  0  0  0  0  0
   -6.5060  -30.1210   11.7390 H   0  0  0  0  0  0  0  0  0  0  0  0
   -0.9780  -28.9550    8.2080 H   0  0  0  0  0  0  0  0  0  0  0  0
    0.2740  -25.7500   10.7520 H   0  0  0  0  0  0  0  0  0  0  0  0
   -2.5440  -29.8760   11.0820 H   0  0  0  0  0  0  0  0  0  0  0  0
   -4.0930  -27.2650   12.2880 H   0  0  0  0  0  0  0  0  0  0  0  0
  1 21  1  0  0  0  0
  2 23  1  0  0  0  0
  3 24  2  0  0  0  0
  4 34  1  0  0  0  0
  4 35  1  0  0  0  0
  5 21  2  0  0  0  0
  6 22  2  0  0  0  0
  7 26  1  0  0  0  0
  7 36  1  0  0  0  0
  8 34  1  0  0  0  0
  8 37  1  0  0  0  0
  9 10  2  0  0  0  0
  9 11  1  0  0  0  0
  9 38  1  0  0  0  0
 10 12  1  0  0  0  0
 10 39  1  0  0  0  0
 11 13  2  0  0  0  0
 11 40  1  0  0  0  0
 12 27  2  0  0  0  0
 12 41  1  0  0  0  0
 13 27  1  0  0  0  0
 13 42  1  0  0  0  0
 14 17  2  0  0  0  0
 14 26  1  0  0  0  0
 14 43  1  0  0  0  0
 15 18  2  0  0  0  0
 15 28  1  0  0  0  0
 15 44  1  0  0  0  0
 16 19  1  0  0  0  0
 16 28  2  0  0  0  0
 16 45  1  0  0  0  0
 17 30  1  0  0  0  0
 17 46  1  0  0  0  0
 18 31  1  0  0  0  0
 18 47  1  0  0  0  0
 19 31  2  0  0  0  0
 19 48  1  0  0  0  0
 20 29  1  0  0  0  0
 20 30  2  0  0  0  0
 20 49  1  0  0  0  0
 21 29  1  0  0  0  0
 22 24  1  0  0  0  0
 22 25  1  0  0  0  0
 23 25  2  0  0  0  0
 23 27  1  0  0  0  0
 24 33  1  0  0  0  0
 25 32  1  0  0  0  0
 26 29  2  0  0  0  0
 28 32  1  0  0  0  0
 30 33  1  0  0  0  0
 31 34  1  0  0  0  0
 32 33  1  0  0  0  0
 32 50  1  1  0  0  0
M  CHG  2   1  -1   2  -1
M  END
>  <COMPND>
    title: molecule 1

$$$$
3O8I_ligand0.pdb
 OpenBabel06042612053D

 25 24  0  0  0  0  0  0  0  0999 V2000
  -23.6360  -22.0120    4.3480 C   0  0  0  0  0  0  0  0  0  0  0  0
  -19.5660  -21.2430    4.0050 O   0  0  0  0  0  0  0  0  0  0  0  0
  -14.9700  -19.5560    2.0860 O   0  0  0  0  0  0  0  0  0  0  0  0
  -15.5970  -21.2460    0.6120 O   0  0  0  0  0  0  0  0  0  0  0  0
  -18.3170  -21.0680    1.6440 C   0  0  0  0  0  0  0  0  0  0  0  0
  -19.6970  -20.4850    1.7200 C   0  0  0  0  0  0  0  0  0  0  0  0
  -17.3090  -19.9770    1.8480 C   0  0  0  0  0  0  0  0  0  0  0  0
  -21.8510  -20.9930    3.0490 C   0  0  0  0  0  0  0  0  0  0  0  0
  -22.5700  -20.9510    4.2920 O   0  0  0  0  0  0  0  0  0  0  0  0
  -20.2990  -20.9470    3.0400 C   0  0  0  0  0  0  0  0  0  0  0  0
  -15.9090  -20.6070    1.8630 C   0  0  0  0  0  0  0  0  0  0  0  0
  -24.1100  -22.0090    5.3290 H   0  0  0  0  0  0  0  0  0  0  0  0
  -24.4070  -21.8160    3.6030 H   0  0  0  0  0  0  0  0  0  0  0  0
  -23.2290  -23.0070    4.1660 H   0  0  0  0  0  0  0  0  0  0  0  0
  -15.1210  -18.8860    1.4400 H   0  0  0  0  0  0  0  0  0  0  0  0
  -14.9110  -21.8800    0.7640 H   0  0  0  0  0  0  0  0  0  0  0  0
  -18.2000  -21.4470    0.6280 H   0  0  0  0  0  0  0  0  0  0  0  0
  -18.1190  -21.9420    2.2690 H   0  0  0  0  0  0  0  0  0  0  0  0
  -20.3120  -20.8740    0.9070 H   0  0  0  0  0  0  0  0  0  0  0  0
  -19.7050  -19.3990    1.6360 H   0  0  0  0  0  0  0  0  0  0  0  0
  -17.4770  -19.5530    2.8400 H   0  0  0  0  0  0  0  0  0  0  0  0
  -17.3850  -19.1370    1.2070 H   0  0  0  0  0  0  0  0  0  0  0  0
  -22.2220  -20.1780    2.4280 H   0  0  0  0  0  0  0  0  0  0  0  0
  -22.1130  -21.9080    2.5200 H   0  0  0  0  0  0  0  0  0  0  0  0
  -15.8500  -21.3380    2.6690 H   0  0  0  0  0  0  0  0  0  0  0  0
  1  9  1  0  0  0  0
  1 12  1  0  0  0  0
  1 13  1  0  0  0  0
  1 14  1  0  0  0  0
  2 10  2  0  0  0  0
  3 11  1  0  0  0  0
  3 15  1  0  0  0  0
  4 11  1  0  0  0  0
  4 16  1  0  0  0  0
  5  6  1  0  0  0  0
  5  7  1  0  0  0  0
  5 17  1  0  0  0  0
  5 18  1  0  0  0  0
  6 10  1  0  0  0  0
  6 19  1  0  0  0  0
  6 20  1  0  0  0  0
  7 11  1  0  0  0  0
  7 21  1  0  0  0  0
  7 22  1  0  0  0  0
  8  9  1  0  0  0  0
  8 10  1  0  0  0  0
  8 23  1  0  0  0  0
  8 24  1  0  0  0  0
 11 25  1  0  0  0  0
M  END
>  <COMPND>
    title: molecule 1

$$$$
3P1O_ligand0.pdb
 OpenBabel06042612053D

104107  0  0  1  0  0  0  0  0999 V2000
  -18.5020  -18.7740   -0.7150 C   0  0  0  0  0  0  0  0  0  0  0  0
  -17.4710  -17.9030   -0.4080 C   0  0  0  0  0  0  0  0  0  0  0  0
  -15.9860  -18.1580   -0.6470 C   0  0  2  0  0  0  0  0  0  0  0  0
  -15.3300  -18.2710    0.7320 C   0  0  0  0  0  0  0  0  0  0  0  0
  -15.3810  -17.0240   -1.4920 C   0  0  0  0  0  0  0  0  0  0  0  0
  -14.0940  -17.6660   -1.9310 O   0  0  0  0  0  0  0  0  0  0  0  0
  -13.3410  -16.7970   -2.6460 C   0  0  0  0  0  0  0  0  0  0  0  0
  -13.8120  -15.7130   -2.9890 O   0  0  0  0  0  0  0  0  0  0  0  0
  -11.9000  -17.2200   -3.0330 C   0  0  0  0  0  0  0  0  0  0  0  0
  -17.9600  -16.7050    0.3010 C   0  0  0  0  0  0  0  0  0  0  0  0
  -19.4280  -16.6570   -0.2640 C   0  0  2  0  0  0  0  0  0  0  0  0
  -20.2370  -15.9450    0.6100 O   0  0  0  0  0  0  0  0  0  0  0  0
  -19.8250  -18.1260   -0.2690 C   0  0  1  0  0  0  0  0  0  0  0  0
  -20.9770  -18.3100   -1.3180 C   0  0  0  0  0  0  0  0  0  0  0  0
  -20.3000  -18.5250    1.0050 C   0  0  0  0  0  0  0  0  0  0  0  0
  -19.9480  -19.5750    1.8680 C   0  0  0  0  0  0  0  0  0  0  0  0
  -20.6190  -19.8840    3.2060 C   0  0  1  0  0  0  0  0  0  0  0  0
  -22.1440  -20.0990    2.9540 C   0  0  0  0  0  0  0  0  0  0  0  0
  -22.7400  -20.3770    4.2190 O   0  0  0  0  0  0  0  0  0  0  0  0
  -24.1630  -20.7320    4.1140 C   0  0  0  0  0  0  0  0  0  0  0  0
  -19.9880  -21.1940    3.6660 C   0  0  0  0  0  0  0  0  0  0  0  0
  -18.5360  -21.1360    3.1250 C   0  0  0  0  0  0  0  0  0  0  0  0
  -18.7000  -20.4830    1.7170 C   0  0  1  0  0  0  0  0  0  0  0  0
  -18.7920  -21.6040    0.6260 C   0  0  1  0  0  0  0  0  0  0  0  0
  -20.2570  -22.0950    0.1740 C   0  0  0  0  0  0  0  0  0  0  0  0
  -17.8810  -21.2330   -0.5660 C   0  0  1  0  0  0  0  0  0  0  0  0
  -17.7510  -22.4200   -1.3760 O   0  0  0  0  0  0  0  0  0  0  0  0
  -18.4910  -20.1130   -1.4480 C   0  0  2  0  0  0  0  0  0  0  0  0
  -17.6310  -19.8760   -2.5930 O   0  0  0  0  0  0  0  0  0  0  0  0
  -18.2820  -20.1050   -3.9150 C   0  0  1  0  0  0  0  0  0  0  0  0
  -19.0100  -18.8920   -4.2300 O   0  0  0  0  0  0  0  0  0  0  0  0
  -18.2880  -17.6950   -4.2260 C   0  0  1  0  0  0  0  0  0  0  0  0
  -17.1210  -17.7660   -5.2230 C   0  0  1  0  0  0  0  0  0  0  0  0
  -16.3180  -16.6390   -4.9860 O   0  0  0  0  0  0  0  0  0  0  0  0
  -16.2670  -19.0220   -4.9780 C   0  0  2  0  0  0  0  0  0  0  0  0
  -15.3160  -18.9370   -6.0640 O   0  0  0  0  0  0  0  0  0  0  0  0
  -14.0890  -19.5220   -5.8030 C   0  0  0  0  0  0  0  0  0  0  0  0
  -13.8310  -20.0370   -4.7000 O   0  0  0  0  0  0  0  0  0  0  0  0
  -13.0470  -19.5230   -6.9640 C   0  0  0  0  0  0  0  0  0  0  0  0
  -17.1800  -20.2610   -4.9800 C   0  0  1  0  0  0  0  0  0  0  0  0
  -16.4380  -21.4230   -4.6680 O   0  0  0  0  0  0  0  0  0  0  0  0
  -19.3250  -16.6130   -4.5730 C   0  0  0  0  0  0  0  0  0  0  0  0
  -19.7390  -16.8800   -5.9100 O   0  0  0  0  0  0  0  0  0  0  0  0
  -20.5160  -15.7680   -6.5640 C   0  0  0  0  0  0  0  0  0  0  0  0
  -21.8530  -15.4650   -5.8130 C   0  0  0  0  0  0  0  0  0  0  0  0
  -20.7570  -16.1850   -8.0100 C   0  0  0  0  0  0  0  0  0  0  0  0
  -19.7500  -14.5960   -6.5720 C   0  0  0  0  0  0  0  0  0  0  0  0
  -18.4110  -14.5750   -6.9860 C   0  0  0  0  0  0  0  0  0  0  0  0
  -15.8770  -19.1020   -1.1680 H   0  0  0  0  0  0  0  0  0  0  0  0
  -14.2870  -18.5760    0.6440 H   0  0  0  0  0  0  0  0  0  0  0  0
  -15.3470  -17.3220    1.2690 H   0  0  0  0  0  0  0  0  0  0  0  0
  -15.8280  -19.0080    1.3520 H   0  0  0  0  0  0  0  0  0  0  0  0
  -15.2190  -16.1220   -0.9000 H   0  0  0  0  0  0  0  0  0  0  0  0
  -16.0130  -16.7870   -2.3470 H   0  0  0  0  0  0  0  0  0  0  0  0
  -11.4330  -16.4630   -3.6630 H   0  0  0  0  0  0  0  0  0  0  0  0
  -11.2930  -17.3500   -2.1370 H   0  0  0  0  0  0  0  0  0  0  0  0
  -11.9190  -18.1640   -3.5780 H   0  0  0  0  0  0  0  0  0  0  0  0
  -17.4040  -15.8030    0.0450 H   0  0  0  0  0  0  0  0  0  0  0  0
  -17.9170  -16.8610    1.3790 H   0  0  0  0  0  0  0  0  0  0  0  0
  -19.4500  -16.2200   -1.2640 H   0  0  0  0  0  0  0  0  0  0  0  0
  -21.1460  -16.1760    0.4630 H   0  0  0  0  0  0  0  0  0  0  0  0
  -21.8430  -17.7130   -1.0520 H   0  0  0  0  0  0  0  0  0  0  0  0
  -20.6690  -18.0460   -2.3250 H   0  0  0  0  0  0  0  0  0  0  0  0
  -21.3350  -19.3350   -1.3390 H   0  0  0  0  0  0  0  0  0  0  0  0
  -21.1830  -17.9990    1.3290 H   0  0  0  0  0  0  0  0  0  0  0  0
  -20.4190  -19.0750    3.9090 H   0  0  0  0  0  0  0  0  0  0  0  0
  -22.3100  -20.9270    2.2660 H   0  0  0  0  0  0  0  0  0  0  0  0
  -22.6160  -19.2150    2.5260 H   0  0  0  0  0  0  0  0  0  0  0  0
  -24.5740  -20.8460    5.1170 H   0  0  0  0  0  0  0  0  0  0  0  0
  -24.7200  -19.9540    3.5910 H   0  0  0  0  0  0  0  0  0  0  0  0
  -24.2910  -21.6760    3.5850 H   0  0  0  0  0  0  0  0  0  0  0  0
  -20.5000  -22.0560    3.2390 H   0  0  0  0  0  0  0  0  0  0  0  0
  -20.0120  -21.3170    4.7460 H   0  0  0  0  0  0  0  0  0  0  0  0
  -18.0640  -22.1060    3.1080 H   0  0  0  0  0  0  0  0  0  0  0  0
  -17.9390  -20.4860    3.7650 H   0  0  0  0  0  0  0  0  0  0  0  0
  -17.8200  -19.8650    1.5710 H   0  0  0  0  0  0  0  0  0  0  0  0
  -18.3230  -22.4970    1.0390 H   0  0  0  0  0  0  0  0  0  0  0  0
  -20.2090  -22.8970   -0.5620 H   0  0  0  0  0  0  0  0  0  0  0  0
  -20.8170  -22.4740    1.0250 H   0  0  0  0  0  0  0  0  0  0  0  0
  -20.8410  -21.2840   -0.2510 H   0  0  0  0  0  0  0  0  0  0  0  0
  -16.8880  -20.9650   -0.2110 H   0  0  0  0  0  0  0  0  0  0  0  0
  -16.9170  -22.4070   -1.8370 H   0  0  0  0  0  0  0  0  0  0  0  0
  -19.4830  -20.3910   -1.7920 H   0  0  0  0  0  0  0  0  0  0  0  0
  -18.9450  -20.9710   -3.8960 H   0  0  0  0  0  0  0  0  0  0  0  0
  -17.9210  -17.5070   -3.2190 H   0  0  0  0  0  0  0  0  0  0  0  0
  -17.4830  -17.7590   -6.2520 H   0  0  0  0  0  0  0  0  0  0  0  0
  -15.9760  -16.6850   -4.1040 H   0  0  0  0  0  0  0  0  0  0  0  0
  -15.7860  -18.9150   -4.0040 H   0  0  0  0  0  0  0  0  0  0  0  0
  -12.2580  -20.2480   -6.7660 H   0  0  0  0  0  0  0  0  0  0  0  0
  -13.5310  -19.7840   -7.9050 H   0  0  0  0  0  0  0  0  0  0  0  0
  -12.5960  -18.5360   -7.0660 H   0  0  0  0  0  0  0  0  0  0  0  0
  -17.6540  -20.3900   -5.9540 H   0  0  0  0  0  0  0  0  0  0  0  0
  -16.1210  -21.3730   -3.7760 H   0  0  0  0  0  0  0  0  0  0  0  0
  -18.8570  -15.6370   -4.4500 H   0  0  0  0  0  0  0  0  0  0  0  0
  -20.1810  -16.6390   -3.9020 H   0  0  0  0  0  0  0  0  0  0  0  0
  -22.5020  -14.8260   -6.4120 H   0  0  0  0  0  0  0  0  0  0  0  0
  -22.4040  -16.3800   -5.5910 H   0  0  0  0  0  0  0  0  0  0  0  0
  -21.6680  -14.9340   -4.8870 H   0  0  0  0  0  0  0  0  0  0  0  0
  -21.3380  -15.4400   -8.5560 H   0  0  0  0  0  0  0  0  0  0  0  0
  -19.8260  -16.3450   -8.5550 H   0  0  0  0  0  0  0  0  0  0  0  0
  -21.2990  -17.1230   -8.0550 H   0  0  0  0  0  0  0  0  0  0  0  0
  -20.2150  -13.6720   -6.2550 H   0  0  0  0  0  0  0  0  0  0  0  0
  -17.8440  -13.6560   -6.9890 H   0  0  0  0  0  0  0  0  0  0  0  0
  -17.9160  -15.4760   -7.3100 H   0  0  0  0  0  0  0  0  0  0  0  0
  1  2  2  0  0  0  0
  1 13  1  0  0  0  0
  1 28  1  0  0  0  0
  2  3  1  0  0  0  0
  2 10  1  0  0  0  0
  3  4  1  0  0  0  0
  3  5  1  0  0  0  0
  3 49  1  6  0  0  0
  4 50  1  0  0  0  0
  4 51  1  0  0  0  0
  4 52  1  0  0  0  0
  5  6  1  0  0  0  0
  5 53  1  0  0  0  0
  5 54  1  0  0  0  0
  6  7  1  0  0  0  0
  7  8  2  0  0  0  0
  7  9  1  0  0  0  0
  9 55  1  0  0  0  0
  9 56  1  0  0  0  0
  9 57  1  0  0  0  0
 10 11  1  0  0  0  0
 10 58  1  0  0  0  0
 10 59  1  0  0  0  0
 11 12  1  0  0  0  0
 11 13  1  0  0  0  0
 11 60  1  6  0  0  0
 12 61  1  0  0  0  0
 13 14  1  6  0  0  0
 13 15  1  0  0  0  0
 14 62  1  0  0  0  0
 14 63  1  0  0  0  0
 14 64  1  0  0  0  0
 15 16  2  0  0  0  0
 15 65  1  0  0  0  0
 16 17  1  0  0  0  0
 16 23  1  0  0  0  0
 17 18  1  0  0  0  0
 17 21  1  0  0  0  0
 17 66  1  1  0  0  0
 18 19  1  0  0  0  0
 18 67  1  0  0  0  0
 18 68  1  0  0  0  0
 19 20  1  0  0  0  0
 20 69  1  0  0  0  0
 20 70  1  0  0  0  0
 20 71  1  0  0  0  0
 21 22  1  0  0  0  0
 21 72  1  0  0  0  0
 21 73  1  0  0  0  0
 22 23  1  0  0  0  0
 22 74  1  0  0  0  0
 22 75  1  0  0  0  0
 23 24  1  0  0  0  0
 23 76  1  6  0  0  0
 24 25  1  0  0  0  0
 24 26  1  0  0  0  0
 24 77  1  1  0  0  0
 25 78  1  0  0  0  0
 25 79  1  0  0  0  0
 25 80  1  0  0  0  0
 26 27  1  0  0  0  0
 26 28  1  0  0  0  0
 26 81  1  1  0  0  0
 27 82  1  0  0  0  0
 28 29  1  0  0  0  0
 28 83  1  6  0  0  0
 29 30  1  0  0  0  0
 30 31  1  0  0  0  0
 30 40  1  0  0  0  0
 30 84  1  1  0  0  0
 31 32  1  0  0  0  0
 32 33  1  0  0  0  0
 32 42  1  0  0  0  0
 32 85  1  1  0  0  0
 33 34  1  0  0  0  0
 33 35  1  0  0  0  0
 33 86  1  6  0  0  0
 34 87  1  0  0  0  0
 35 36  1  0  0  0  0
 35 40  1  0  0  0  0
 35 88  1  1  0  0  0
 36 37  1  0  0  0  0
 37 38  2  0  0  0  0
 37 39  1  0  0  0  0
 39 89  1  0  0  0  0
 39 90  1  0  0  0  0
 39 91  1  0  0  0  0
 40 41  1  0  0  0  0
 40 92  1  6  0  0  0
 41 93  1  0  0  0  0
 42 43  1  0  0  0  0
 42 94  1  0  0  0  0
 42 95  1  0  0  0  0
 43 44  1  0  0  0  0
 44 45  1  0  0  0  0
 44 46  1  0  0  0  0
 44 47  1  0  0  0  0
 45 96  1  0  0  0  0
 45 97  1  0  0  0  0
 45 98  1  0  0  0  0
 46 99  1  0  0  0  0
 46100  1  0  0  0  0
 46101  1  0  0  0  0
 47 48  2  0  0  0  0
 47102  1  0  0  0  0
 48103  1  0  0  0  0
 48104  1  0  0  0  0
M  END
>  <COMPND>
    title: molecule 1

$$$$
3QEL_ligand0.pdb
 OpenBabel06042612053D

 52 54  0  0  1  0  0  0  0  0999 V2000
   80.4990    1.0220  -32.1880 C   0  0  0  0  0  0  0  0  0  0  0  0
   86.1030    6.6010  -31.8820 N   0  3  1  0  0  0  0  0  0  0  0  0
   85.8250    9.4300  -32.0130 O   0  0  0  0  0  0  0  0  0  0  0  0
   90.3220   10.1020  -30.7460 C   0  0  0  0  0  0  0  0  0  0  0  0
   91.8370   11.8350  -31.6200 O   0  0  0  0  0  0  0  0  0  0  0  0
   89.8100   11.3520  -32.6850 C   0  0  0  0  0  0  0  0  0  0  0  0
   82.3370    2.8190  -31.0800 C   0  0  0  0  0  0  0  0  0  0  0  0
   81.0490    3.2530  -31.3780 C   0  0  0  0  0  0  0  0  0  0  0  0
   80.1200    2.3640  -31.9320 C   0  0  0  0  0  0  0  0  0  0  0  0
   83.2980    3.7680  -30.4370 C   0  0  0  0  0  0  0  0  0  0  0  0
   84.5530    4.2650  -31.2710 C   0  0  1  0  0  0  0  0  0  0  0  0
   84.1340    5.1320  -32.3440 C   0  0  0  0  0  0  0  0  0  0  0  0
   81.7840    0.5860  -31.8850 C   0  0  0  0  0  0  0  0  0  0  0  0
   82.7080    1.4760  -31.3200 C   0  0  0  0  0  0  0  0  0  0  0  0
   85.2520    5.9610  -32.9120 C   0  0  0  0  0  0  0  0  0  0  0  0
   86.4740    5.7800  -30.7630 C   0  0  0  0  0  0  0  0  0  0  0  0
   85.3560    4.9570  -30.2410 C   0  0  0  0  0  0  0  0  0  0  0  0
   87.0920    7.4840  -32.5220 C   0  0  2  0  0  0  0  0  0  0  0  0
   86.9410    8.9080  -32.0930 C   0  0  1  0  0  0  0  0  0  0  0  0
   88.2560    9.6610  -31.8720 C   0  0  0  0  0  0  0  0  0  0  0  0
   89.1030    9.3780  -30.8670 C   0  0  0  0  0  0  0  0  0  0  0  0
   90.6370   11.0920  -31.6860 C   0  0  0  0  0  0  0  0  0  0  0  0
   88.5940   10.6190  -32.7980 C   0  0  0  0  0  0  0  0  0  0  0  0
   86.9830    7.5240  -33.9870 C   0  0  0  0  0  0  0  0  0  0  0  0
   79.7840    0.3350  -32.6170 H   0  0  0  0  0  0  0  0  0  0  0  0
   85.4570    7.2580  -31.4600 H   0  0  0  0  0  0  0  0  0  0  0  0
   85.6720    9.9290  -32.8030 H   0  0  0  0  0  0  0  0  0  0  0  0
   91.0010    9.8890  -29.9330 H   0  0  0  0  0  0  0  0  0  0  0  0
   92.3260   11.7660  -30.7990 H   0  0  0  0  0  0  0  0  0  0  0  0
   90.0610   12.0950  -33.4280 H   0  0  0  0  0  0  0  0  0  0  0  0
   80.7530    4.2740  -31.1830 H   0  0  0  0  0  0  0  0  0  0  0  0
   79.1250    2.7020  -32.1690 H   0  0  0  0  0  0  0  0  0  0  0  0
   83.6380    3.2610  -29.5340 H   0  0  0  0  0  0  0  0  0  0  0  0
   82.7330    4.6240  -30.0710 H   0  0  0  0  0  0  0  0  0  0  0  0
   85.1220    3.4230  -31.6650 H   0  0  0  0  0  0  0  0  0  0  0  0
   83.3530    5.8060  -31.9920 H   0  0  0  0  0  0  0  0  0  0  0  0
   83.6680    4.5480  -33.1350 H   0  0  0  0  0  0  0  0  0  0  0  0
   82.0610   -0.4410  -32.0670 H   0  0  0  0  0  0  0  0  0  0  0  0
   83.6980    1.1290  -31.0680 H   0  0  0  0  0  0  0  0  0  0  0  0
   85.8410    5.2710  -33.5190 H   0  0  0  0  0  0  0  0  0  0  0  0
   84.7310    6.6710  -33.5540 H   0  0  0  0  0  0  0  0  0  0  0  0
   86.8870    6.4030  -29.9690 H   0  0  0  0  0  0  0  0  0  0  0  0
   87.2770    5.1180  -31.0900 H   0  0  0  0  0  0  0  0  0  0  0  0
   85.7790    4.2210  -29.5570 H   0  0  0  0  0  0  0  0  0  0  0  0
   84.7330    5.5860  -29.6080 H   0  0  0  0  0  0  0  0  0  0  0  0
   88.0720    7.1030  -32.2410 H   0  0  0  0  0  0  0  0  0  0  0  0
   86.8370    8.6980  -31.0270 H   0  0  0  0  0  0  0  0  0  0  0  0
   88.8710    8.6120  -30.1420 H   0  0  0  0  0  0  0  0  0  0  0  0
   87.9990   10.8100  -33.6480 H   0  0  0  0  0  0  0  0  0  0  0  0
   87.7650    8.1710  -34.3760 H   0  0  0  0  0  0  0  0  0  0  0  0
   87.1700    6.5740  -34.4870 H   0  0  0  0  0  0  0  0  0  0  0  0
   86.0740    7.9880  -34.3700 H   0  0  0  0  0  0  0  0  0  0  0  0
  1  9  2  0  0  0  0
  1 13  1  0  0  0  0
  1 25  1  0  0  0  0
  2 15  1  0  0  0  0
  2 16  1  0  0  0  0
  2 18  1  0  0  0  0
  2 26  1  1  0  0  0
  3 19  1  0  0  0  0
  3 27  1  0  0  0  0
  4 21  2  0  0  0  0
  4 22  1  0  0  0  0
  4 28  1  0  0  0  0
  5 22  1  0  0  0  0
  5 29  1  0  0  0  0
  6 22  2  0  0  0  0
  6 23  1  0  0  0  0
  6 30  1  0  0  0  0
  7  8  2  0  0  0  0
  7 10  1  0  0  0  0
  7 14  1  0  0  0  0
  8  9  1  0  0  0  0
  8 31  1  0  0  0  0
  9 32  1  0  0  0  0
 10 11  1  0  0  0  0
 10 33  1  0  0  0  0
 10 34  1  0  0  0  0
 11 12  1  0  0  0  0
 11 17  1  0  0  0  0
 11 35  1  6  0  0  0
 12 15  1  0  0  0  0
 12 36  1  0  0  0  0
 12 37  1  0  0  0  0
 13 14  2  0  0  0  0
 13 38  1  0  0  0  0
 14 39  1  0  0  0  0
 15 40  1  0  0  0  0
 15 41  1  0  0  0  0
 16 17  1  0  0  0  0
 16 42  1  0  0  0  0
 16 43  1  0  0  0  0
 17 44  1  0  0  0  0
 17 45  1  0  0  0  0
 18 19  1  0  0  0  0
 18 24  1  0  0  0  0
 18 46  1  1  0  0  0
 19 20  1  0  0  0  0
 19 47  1  1  0  0  0
 20 21  1  0  0  0  0
 20 23  2  0  0  0  0
 21 48  1  0  0  0  0
 23 49  1  0  0  0  0
 24 50  1  0  0  0  0
 24 51  1  0  0  0  0
 24 52  1  0  0  0  0
M  CHG  1   2   1
M  END
>  <COMPND>
    title: molecule 1

$$$$
3QN1_ligand0.pdb
 OpenBabel06042612053D

 38 38  0  0  1  0  0  0  0  0999 V2000
    3.3590   22.1480   37.1680 C   0  0  0  0  0  0  0  0  0  0  0  0
    1.9880   22.0070   37.0880 C   0  0  0  0  0  0  0  0  0  0  0  0
    1.1620   22.0760   36.0090 C   0  0  0  0  0  0  0  0  0  0  0  0
    1.6320   22.2780   34.7650 C   0  0  0  0  0  0  0  0  0  0  0  0
    0.8060   22.3300   33.5240 C   0  0  0  0  0  0  0  0  0  0  0  0
   -0.3310   21.9170   36.1790 C   0  0  0  0  0  0  0  0  0  0  0  0
    1.4650   22.7090   32.1850 C   0  0  1  0  0  0  0  0  0  0  0  0
    2.9020   22.8230   32.2410 O   0  0  0  0  0  0  0  0  0  0  0  0
    1.2700   21.5980   31.1510 C   0  0  0  0  0  0  0  0  0  0  0  0
   -0.1620   21.5250   30.6990 C   0  0  0  0  0  0  0  0  0  0  0  0
   -0.9130   22.6700   30.5140 C   0  0  0  0  0  0  0  0  0  0  0  0
   -1.9320   22.6480   29.6420 O   0  0  0  0  0  0  0  0  0  0  0  0
   -0.6150   23.9090   31.3060 C   0  0  0  0  0  0  0  0  0  0  0  0
    4.1200   22.2980   36.1660 O   0  5  0  0  0  0  0  0  0  0  0  0
    0.9080   24.0310   31.5930 C   0  0  0  0  0  0  0  0  0  0  0  0
    3.8540   22.1080   38.3270 O   0  0  0  0  0  0  0  0  0  0  0  0
    2.0400   20.2930   31.4560 C   0  0  0  0  0  0  0  0  0  0  0  0
    1.6310   24.4240   30.2870 C   0  0  0  0  0  0  0  0  0  0  0  0
    1.0030   25.2220   32.5410 C   0  0  0  0  0  0  0  0  0  0  0  0
    1.5050   21.8200   38.0360 H   0  0  0  0  0  0  0  0  0  0  0  0
    2.6600   22.4400   34.5700 H   0  0  0  0  0  0  0  0  0  0  0  0
   -0.2570   22.1440   33.5310 H   0  0  0  0  0  0  0  0  0  0  0  0
   -0.8510   22.8240   35.8700 H   0  0  0  0  0  0  0  0  0  0  0  0
   -0.7040   21.0790   35.5890 H   0  0  0  0  0  0  0  0  0  0  0  0
   -0.5980   21.7250   37.2190 H   0  0  0  0  0  0  0  0  0  0  0  0
    3.1390   23.5010   32.8630 H   0  0  0  0  0  0  0  0  0  0  0  0
   -0.5320   20.6060   30.2680 H   0  0  0  0  0  0  0  0  0  0  0  0
   -1.1820   23.8520   32.2330 H   0  0  0  0  0  0  0  0  0  0  0  0
   -0.9780   24.7850   30.7730 H   0  0  0  0  0  0  0  0  0  0  0  0
    1.7880   19.5280   30.7220 H   0  0  0  0  0  0  0  0  0  0  0  0
    3.1160   20.4510   31.4120 H   0  0  0  0  0  0  0  0  0  0  0  0
    1.7850   19.9060   32.4390 H   0  0  0  0  0  0  0  0  0  0  0  0
    1.2030   25.3350   29.8660 H   0  0  0  0  0  0  0  0  0  0  0  0
    2.6890   24.6310   30.4480 H   0  0  0  0  0  0  0  0  0  0  0  0
    1.5570   23.6650   29.5090 H   0  0  0  0  0  0  0  0  0  0  0  0
    0.5520   26.1220   32.1200 H   0  0  0  0  0  0  0  0  0  0  0  0
    0.4910   24.9950   33.4740 H   0  0  0  0  0  0  0  0  0  0  0  0
    2.0390   25.4590   32.7860 H   0  0  0  0  0  0  0  0  0  0  0  0
  1  2  1  0  0  0  0
  1 14  1  0  0  0  0
  1 16  2  0  0  0  0
  2  3  2  0  0  0  0
  2 20  1  0  0  0  0
  3  4  1  0  0  0  0
  3  6  1  0  0  0  0
  4  5  2  0  0  0  0
  4 21  1  0  0  0  0
  5 22  1  0  0  0  0
  6 23  1  0  0  0  0
  6 24  1  0  0  0  0
  6 25  1  0  0  0  0
  7  5  1  1  0  0  0
  7  8  1  0  0  0  0
  7  9  1  0  0  0  0
  7 15  1  0  0  0  0
  8 26  1  0  0  0  0
  9 10  2  0  0  0  0
  9 17  1  0  0  0  0
 10 11  1  0  0  0  0
 10 27  1  0  0  0  0
 11 12  2  0  0  0  0
 11 13  1  0  0  0  0
 13 15  1  0  0  0  0
 13 28  1  0  0  0  0
 13 29  1  0  0  0  0
 15 18  1  0  0  0  0
 15 19  1  0  0  0  0
 17 30  1  0  0  0  0
 17 31  1  0  0  0  0
 17 32  1  0  0  0  0
 18 33  1  0  0  0  0
 18 34  1  0  0  0  0
 18 35  1  0  0  0  0
 19 36  1  0  0  0  0
 19 37  1  0  0  0  0
 19 38  1  0  0  0  0
M  CHG  1  14  -1
M  END
>  <COMPND>
    title: molecule 1

$$$$
3SMK_ligand0.pdb
 OpenBabel06042612053D

 94100  0  0  1  0  0  0  0  0999 V2000
   27.9760  -17.9670   -4.7370 C   0  0  0  0  0  0  0  0  0  0  0  0
   27.9940  -16.5900   -5.1640 O   0  0  0  0  0  0  0  0  0  0  0  0
   21.5870  -22.8180    0.4840 C   0  0  0  0  0  0  0  0  0  0  0  0
   22.8020  -22.1450    0.8240 C   0  0  0  0  0  0  0  0  0  0  0  0
   22.9060  -21.3000    2.0380 C   0  0  2  0  0  0  0  0  0  0  0  0
   22.9190  -22.0970    3.3920 C   0  0  0  0  0  0  0  0  0  0  0  0
   21.4160  -22.0920    3.9050 C   0  0  0  0  0  0  0  0  0  0  0  0
   20.8780  -20.7440    3.4340 C   0  0  1  0  0  0  0  0  0  0  0  0
   21.5050  -20.5630    2.0430 C   0  0  1  0  0  0  0  0  0  0  0  0
   21.3930  -19.1760    1.5010 C   0  0  0  0  0  0  0  0  0  0  0  0
   21.8220  -18.7770    0.1140 C   0  0  1  0  0  0  0  0  0  0  0  0
   22.1970  -17.3100    0.2460 C   0  0  0  0  0  0  0  0  0  0  0  0
   23.7050  -17.4400    0.7250 C   0  0  0  0  0  0  0  0  0  0  0  0
   24.1370  -18.6060   -0.0270 C   0  0  0  0  0  0  0  0  0  0  0  0
   23.0830  -19.4030   -0.3470 C   0  0  0  0  0  0  0  0  0  0  0  0
   23.0570  -20.6750   -1.0660 C   0  0  2  0  0  0  0  0  0  0  0  0
   23.6640  -21.8620   -0.2660 C   0  0  2  0  0  0  0  0  0  0  0  0
   23.7980  -22.9190   -1.2610 O   0  0  0  0  0  0  0  0  0  0  0  0
   23.8170  -20.5180   -2.2630 O   0  0  0  0  0  0  0  0  0  0  0  0
   23.2400  -20.7640   -3.4970 C   0  0  2  0  0  0  0  0  0  0  0  0
   24.5700  -20.9510   -4.1940 C   0  0  2  0  0  0  0  0  0  0  0  0
   25.1640  -19.6750   -4.8630 C   0  0  2  0  0  0  0  0  0  0  0  0
   24.2470  -18.4080   -4.8970 C   0  0  2  0  0  0  0  0  0  0  0  0
   23.0610  -18.3540   -3.9480 C   0  0  2  0  0  0  0  0  0  0  0  0
   22.4540  -19.6470   -3.9460 O   0  0  0  0  0  0  0  0  0  0  0  0
   22.0680  -17.2430   -4.4150 C   0  0  0  0  0  0  0  0  0  0  0  0
   21.0890  -17.7740   -5.3360 O   0  0  0  0  0  0  0  0  0  0  0  0
   19.9230  -16.9300   -5.4920 C   0  0  0  0  0  0  0  0  0  0  0  0
   23.8020  -18.4100   -6.2640 O   0  0  0  0  0  0  0  0  0  0  0  0
   25.1190  -18.4570   -6.8350 C   0  0  2  0  0  0  0  0  0  0  0  0
   25.5870  -19.7400   -6.2800 O   0  0  0  0  0  0  0  0  0  0  0  0
   25.7740  -17.2640   -6.1150 C   0  0  2  0  0  0  0  0  0  0  0  0
   25.1090  -17.2340   -4.7830 O   0  0  0  0  0  0  0  0  0  0  0  0
   25.4300  -15.9190   -6.8300 C   0  0  0  0  0  0  0  0  0  0  0  0
   27.3170  -17.5200   -6.0550 C   0  0  2  0  0  0  0  0  0  0  0  0
   24.6300  -22.1680   -4.8150 O   0  0  0  0  0  0  0  0  0  0  0  0
   25.6290  -18.9790   -0.3640 C   0  0  0  0  0  0  0  0  0  0  0  0
   26.4040  -19.3400    0.9170 C   0  0  0  0  0  0  0  0  0  0  0  0
   26.3750  -17.8700   -1.1240 C   0  0  0  0  0  0  0  0  0  0  0  0
   20.6070  -18.8640   -0.8380 C   0  0  0  0  0  0  0  0  0  0  0  0
   19.3310  -20.8310    3.2710 C   0  0  0  0  0  0  0  0  0  0  0  0
   18.6110  -21.0030    4.5360 O   0  0  0  0  0  0  0  0  0  0  0  0
   17.2780  -21.2950    4.2600 C   0  0  0  0  0  0  0  0  0  0  0  0
   21.3530  -19.8200    4.3910 O   0  0  0  0  0  0  0  0  0  0  0  0
   27.4590  -18.0480   -3.7880 H   0  0  0  0  0  0  0  0  0  0  0  0
   28.9420  -18.4640   -4.7890 H   0  0  0  0  0  0  0  0  0  0  0  0
   21.4420  -23.2560   -0.4920 H   0  0  0  0  0  0  0  0  0  0  0  0
   20.7880  -22.9820    1.1900 H   0  0  0  0  0  0  0  0  0  0  0  0
   23.7460  -20.6080    2.0090 H   0  0  0  0  0  0  0  0  0  0  0  0
   23.5540  -21.5820    4.1130 H   0  0  0  0  0  0  0  0  0  0  0  0
   23.3110  -23.1010    3.2640 H   0  0  0  0  0  0  0  0  0  0  0  0
   21.3470  -22.2510    4.9790 H   0  0  0  0  0  0  0  0  0  0  0  0
   20.8760  -22.9140    3.4360 H   0  0  0  0  0  0  0  0  0  0  0  0
   20.7450  -20.9470    1.3840 H   0  0  0  0  0  0  0  0  0  0  0  0
   21.9520  -18.5940    2.2320 H   0  0  0  0  0  0  0  0  0  0  0  0
   20.3780  -18.8060    1.6490 H   0  0  0  0  0  0  0  0  0  0  0  0
   21.5730  -16.7320    0.9300 H   0  0  0  0  0  0  0  0  0  0  0  0
   22.1680  -16.8110   -0.7250 H   0  0  0  0  0  0  0  0  0  0  0  0
   23.8280  -17.6010    1.7940 H   0  0  0  0  0  0  0  0  0  0  0  0
   24.2730  -16.5520    0.4470 H   0  0  0  0  0  0  0  0  0  0  0  0
   22.0390  -20.9230   -1.3610 H   0  0  0  0  0  0  0  0  0  0  0  0
   24.6660  -21.6500    0.1040 H   0  0  0  0  0  0  0  0  0  0  0  0
   24.5680  -22.7310   -1.7880 H   0  0  0  0  0  0  0  0  0  0  0  0
   22.6400  -21.6740   -3.4750 H   0  0  0  0  0  0  0  0  0  0  0  0
   25.3400  -20.9720   -3.4740 H   0  0  0  0  0  0  0  0  0  0  0  0
   26.0270  -19.4050   -4.2740 H   0  0  0  0  0  0  0  0  0  0  0  0
   23.4400  -18.1120   -2.9550 H   0  0  0  0  0  0  0  0  0  0  0  0
   22.5770  -16.3770   -4.8400 H   0  0  0  0  0  0  0  0  0  0  0  0
   21.5430  -16.8900   -3.5290 H   0  0  0  0  0  0  0  0  0  0  0  0
   19.2560  -17.3630   -6.2370 H   0  0  0  0  0  0  0  0  0  0  0  0
   19.3690  -16.8490   -4.5560 H   0  0  0  0  0  0  0  0  0  0  0  0
   20.2020  -15.9290   -5.8240 H   0  0  0  0  0  0  0  0  0  0  0  0
   25.1440  -18.4270   -7.9250 H   0  0  0  0  0  0  0  0  0  0  0  0
   25.8430  -15.0720   -6.2830 H   0  0  0  0  0  0  0  0  0  0  0  0
   25.8360  -15.8940   -7.8410 H   0  0  0  0  0  0  0  0  0  0  0  0
   24.3520  -15.7730   -6.8980 H   0  0  0  0  0  0  0  0  0  0  0  0
   27.8350  -17.6910   -6.9970 H   0  0  0  0  0  0  0  0  0  0  0  0
   25.3270  -22.6550   -4.3940 H   0  0  0  0  0  0  0  0  0  0  0  0
   25.6630  -19.8590   -0.9970 H   0  0  0  0  0  0  0  0  0  0  0  0
   27.4310  -19.6250    0.6920 H   0  0  0  0  0  0  0  0  0  0  0  0
   26.4400  -18.5000    1.6110 H   0  0  0  0  0  0  0  0  0  0  0  0
   25.9440  -20.1780    1.4360 H   0  0  0  0  0  0  0  0  0  0  0  0
   27.3800  -18.1930   -1.3970 H   0  0  0  0  0  0  0  0  0  0  0  0
   25.8480  -17.6100   -2.0420 H   0  0  0  0  0  0  0  0  0  0  0  0
   26.4680  -16.9640   -0.5250 H   0  0  0  0  0  0  0  0  0  0  0  0
   20.8670  -18.5710   -1.8550 H   0  0  0  0  0  0  0  0  0  0  0  0
   20.1910  -19.8700   -0.8760 H   0  0  0  0  0  0  0  0  0  0  0  0
   19.7980  -18.2160   -0.5050 H   0  0  0  0  0  0  0  0  0  0  0  0
   19.0860  -21.6650    2.6140 H   0  0  0  0  0  0  0  0  0  0  0  0
   18.9370  -19.9320    2.7970 H   0  0  0  0  0  0  0  0  0  0  0  0
   16.7640  -21.3840    5.2160 H   0  0  0  0  0  0  0  0  0  0  0  0
   16.7990  -20.5080    3.6750 H   0  0  0  0  0  0  0  0  0  0  0  0
   17.1710  -22.2470    3.7410 H   0  0  0  0  0  0  0  0  0  0  0  0
   21.1850  -18.9340    4.0980 H   0  0  0  0  0  0  0  0  0  0  0  0
  1  2  1  0  0  0  0
  1 35  1  0  0  0  0
  1 45  1  0  0  0  0
  1 46  1  0  0  0  0
  2 35  1  0  0  0  0
  3  4  2  0  0  0  0
  3 47  1  0  0  0  0
  3 48  1  0  0  0  0
  4  5  1  0  0  0  0
  4 17  1  0  0  0  0
  5  6  1  0  0  0  0
  5  9  1  0  0  0  0
  5 49  1  6  0  0  0
  6  7  1  0  0  0  0
  6 50  1  0  0  0  0
  6 51  1  0  0  0  0
  7  8  1  0  0  0  0
  7 52  1  0  0  0  0
  7 53  1  0  0  0  0
  8  9  1  0  0  0  0
  8 41  1  0  0  0  0
  8 44  1  1  0  0  0
  9 10  1  0  0  0  0
  9 54  1  6  0  0  0
 10 11  1  0  0  0  0
 10 55  1  0  0  0  0
 10 56  1  0  0  0  0
 11 12  1  0  0  0  0
 11 15  1  0  0  0  0
 11 40  1  6  0  0  0
 12 13  1  0  0  0  0
 12 57  1  0  0  0  0
 12 58  1  0  0  0  0
 13 14  1  0  0  0  0
 13 59  1  0  0  0  0
 13 60  1  0  0  0  0
 14 15  2  0  0  0  0
 14 37  1  0  0  0  0
 15 16  1  0  0  0  0
 16 17  1  0  0  0  0
 16 19  1  0  0  0  0
 16 61  1  6  0  0  0
 17 18  1  0  0  0  0
 17 62  1  1  0  0  0
 18 63  1  0  0  0  0
 19 20  1  0  0  0  0
 20 21  1  0  0  0  0
 20 25  1  0  0  0  0
 20 64  1  1  0  0  0
 21 22  1  0  0  0  0
 21 36  1  0  0  0  0
 21 65  1  1  0  0  0
 22 23  1  0  0  0  0
 22 31  1  0  0  0  0
 22 66  1  1  0  0  0
 23 24  1  0  0  0  0
 23 29  1  6  0  0  0
 23 33  1  0  0  0  0
 24 25  1  0  0  0  0
 24 26  1  0  0  0  0
 24 67  1  1  0  0  0
 26 27  1  0  0  0  0
 26 68  1  0  0  0  0
 26 69  1  0  0  0  0
 27 28  1  0  0  0  0
 28 70  1  0  0  0  0
 28 71  1  0  0  0  0
 28 72  1  0  0  0  0
 29 30  1  0  0  0  0
 30 31  1  0  0  0  0
 30 32  1  0  0  0  0
 30 73  1  6  0  0  0
 32 33  1  0  0  0  0
 32 34  1  6  0  0  0
 32 35  1  0  0  0  0
 34 74  1  0  0  0  0
 34 75  1  0  0  0  0
 34 76  1  0  0  0  0
 35 77  1  6  0  0  0
 36 78  1  0  0  0  0
 37 38  1  0  0  0  0
 37 39  1  0  0  0  0
 37 79  1  0  0  0  0
 38 80  1  0  0  0  0
 38 81  1  0  0  0  0
 38 82  1  0  0  0  0
 39 83  1  0  0  0  0
 39 84  1  0  0  0  0
 39 85  1  0  0  0  0
 40 86  1  0  0  0  0
 40 87  1  0  0  0  0
 40 88  1  0  0  0  0
 41 42  1  0  0  0  0
 41 89  1  0  0  0  0
 41 90  1  0  0  0  0
 42 43  1  0  0  0  0
 43 91  1  0  0  0  0
 43 92  1  0  0  0  0
 43 93  1  0  0  0  0
 44 94  1  0  0  0  0
M  END
>  <COMPND>
    title: molecule 1

$$$$
3SML_ligand0.pdb
 OpenBabel06042612053D

 65 67  0  0  1  0  0  0  0  0999 V2000
   23.0860  -22.2890    0.5040 C   0  0  2  0  0  0  0  0  0  0  0  0
   23.2510  -21.1830    1.5960 C   0  0  1  0  0  0  0  0  0  0  0  0
   22.0370  -20.2200    1.6740 C   0  0  0  0  0  0  0  0  0  0  0  0
   21.7550  -19.1980    0.7820 C   0  0  0  0  0  0  0  0  0  0  0  0
   22.2660  -18.7800   -0.4540 C   0  0  2  0  0  0  0  0  0  0  0  0
   23.5770  -19.5040   -0.8980 C   0  0  0  0  0  0  0  0  0  0  0  0
   23.4420  -20.8190   -1.6230 C   0  0  2  0  0  0  0  0  0  0  0  0
   23.9750  -21.9290   -0.7070 C   0  0  2  0  0  0  0  0  0  0  0  0
   22.7480  -17.2890   -0.3870 C   0  0  2  0  0  0  0  0  0  0  0  0
   24.1800  -17.4700    0.1670 C   0  0  0  0  0  0  0  0  0  0  0  0
   24.6630  -18.7240   -0.5510 C   0  0  0  0  0  0  0  0  0  0  0  0
   23.3850  -21.7520    3.0310 C   0  0  0  0  0  0  0  0  0  0  0  0
   21.9370  -21.8070    3.5560 C   0  0  0  0  0  0  0  0  0  0  0  0
   21.3170  -20.5340    2.9900 C   0  0  2  0  0  0  0  0  0  0  0  0
   21.0930  -18.9860   -1.4760 C   0  0  0  0  0  0  0  0  0  0  0  0
   19.8150  -20.6670    2.7160 C   0  0  0  0  0  0  0  0  0  0  0  0
   21.5910  -22.6320    0.0200 C   0  0  0  0  0  0  0  0  0  0  0  0
   24.0840  -23.0690   -1.5710 O   0  0  0  0  0  0  0  0  0  0  0  0
   19.1910  -20.8970    4.0180 O   0  0  0  0  0  0  0  0  0  0  0  0
   26.1370  -19.0650   -0.6920 C   0  0  2  0  0  0  0  0  0  0  0  0
   26.7650  -18.8840    0.6900 C   0  0  0  0  0  0  0  0  0  0  0  0
   26.8070  -18.0260   -1.6720 C   0  0  0  0  0  0  0  0  0  0  0  0
   24.2900  -20.6450   -2.7900 O   0  0  0  0  0  0  0  0  0  0  0  0
   26.3550  -18.2200   -3.0380 O   0  0  0  0  0  0  0  0  0  0  0  0
   21.9320  -16.4420    0.4410 O   0  0  0  0  0  0  0  0  0  0  0  0
   17.7470  -21.1780    3.9000 C   0  0  0  0  0  0  0  0  0  0  0  0
   27.0510  -19.1780   -3.8210 C   0  0  0  0  0  0  0  0  0  0  0  0
   27.9550  -18.7260   -4.9850 C   0  0  0  0  0  0  0  0  0  0  0  0
   26.9260  -20.4050   -3.6420 O   0  0  0  0  0  0  0  0  0  0  0  0
   23.5000  -23.2130    0.9100 H   0  0  0  0  0  0  0  0  0  0  0  0
   24.1600  -20.6090    1.4270 H   0  0  0  0  0  0  0  0  0  0  0  0
   20.8910  -18.6210    1.0690 H   0  0  0  0  0  0  0  0  0  0  0  0
   22.4460  -21.0430   -1.9940 H   0  0  0  0  0  0  0  0  0  0  0  0
   24.9870  -21.7200   -0.3610 H   0  0  0  0  0  0  0  0  0  0  0  0
   22.7910  -16.8690   -1.3940 H   0  0  0  0  0  0  0  0  0  0  0  0
   24.1900  -17.6330    1.2440 H   0  0  0  0  0  0  0  0  0  0  0  0
   24.7950  -16.5990   -0.0580 H   0  0  0  0  0  0  0  0  0  0  0  0
   23.9720  -21.0660    3.6420 H   0  0  0  0  0  0  0  0  0  0  0  0
   23.8810  -22.7180    3.0670 H   0  0  0  0  0  0  0  0  0  0  0  0
   21.8950  -21.8920    4.6330 H   0  0  0  0  0  0  0  0  0  0  0  0
   21.4410  -22.6890    3.1500 H   0  0  0  0  0  0  0  0  0  0  0  0
   21.5070  -19.7040    3.6720 H   0  0  0  0  0  0  0  0  0  0  0  0
   21.4240  -18.8240   -2.5020 H   0  0  0  0  0  0  0  0  0  0  0  0
   20.6360  -19.9660   -1.4140 H   0  0  0  0  0  0  0  0  0  0  0  0
   20.2910  -18.2750   -1.2840 H   0  0  0  0  0  0  0  0  0  0  0  0
   19.6210  -21.5060    2.0530 H   0  0  0  0  0  0  0  0  0  0  0  0
   19.3910  -19.7700    2.2640 H   0  0  0  0  0  0  0  0  0  0  0  0
   21.5810  -23.3790   -0.7720 H   0  0  0  0  0  0  0  0  0  0  0  0
   21.0110  -23.0380    0.8460 H   0  0  0  0  0  0  0  0  0  0  0  0
   21.0570  -21.7620   -0.3430 H   0  0  0  0  0  0  0  0  0  0  0  0
   24.8810  -22.9770   -2.0810 H   0  0  0  0  0  0  0  0  0  0  0  0
   26.2900  -20.0830   -1.0430 H   0  0  0  0  0  0  0  0  0  0  0  0
   27.8160  -19.1690    0.6650 H   0  0  0  0  0  0  0  0  0  0  0  0
   26.7200  -17.8530    1.0430 H   0  0  0  0  0  0  0  0  0  0  0  0
   26.2820  -19.5170    1.4340 H   0  0  0  0  0  0  0  0  0  0  0  0
   27.8930  -18.1240   -1.6350 H   0  0  0  0  0  0  0  0  0  0  0  0
   26.5810  -17.0040   -1.3690 H   0  0  0  0  0  0  0  0  0  0  0  0
   25.1810  -20.4900   -2.5090 H   0  0  0  0  0  0  0  0  0  0  0  0
   22.3280  -16.3790    1.3020 H   0  0  0  0  0  0  0  0  0  0  0  0
   17.3160  -21.2660    4.8970 H   0  0  0  0  0  0  0  0  0  0  0  0
   17.2320  -20.3770    3.3690 H   0  0  0  0  0  0  0  0  0  0  0  0
   17.5760  -22.1170    3.3750 H   0  0  0  0  0  0  0  0  0  0  0  0
   28.3120  -19.5850   -5.5530 H   0  0  0  0  0  0  0  0  0  0  0  0
   27.4010  -18.0720   -5.6590 H   0  0  0  0  0  0  0  0  0  0  0  0
   28.8170  -18.1800   -4.6010 H   0  0  0  0  0  0  0  0  0  0  0  0
  1  2  1  0  0  0  0
  1  8  1  0  0  0  0
  1 17  1  0  0  0  0
  1 30  1  1  0  0  0
  2  3  1  0  0  0  0
  2 12  1  0  0  0  0
  2 31  1  6  0  0  0
  3  4  2  0  0  0  0
  3 14  1  0  0  0  0
  4  5  1  0  0  0  0
  4 32  1  0  0  0  0
  5  6  1  0  0  0  0
  5  9  1  0  0  0  0
  5 15  1  6  0  0  0
  6  7  1  0  0  0  0
  6 11  2  0  0  0  0
  7  8  1  0  0  0  0
  7 23  1  0  0  0  0
  7 33  1  6  0  0  0
  8 18  1  0  0  0  0
  8 34  1  1  0  0  0
  9 10  1  0  0  0  0
  9 25  1  0  0  0  0
  9 35  1  6  0  0  0
 10 11  1  0  0  0  0
 10 36  1  0  0  0  0
 10 37  1  0  0  0  0
 11 20  1  0  0  0  0
 12 13  1  0  0  0  0
 12 38  1  0  0  0  0
 12 39  1  0  0  0  0
 13 14  1  0  0  0  0
 13 40  1  0  0  0  0
 13 41  1  0  0  0  0
 14 16  1  0  0  0  0
 14 42  1  1  0  0  0
 15 43  1  0  0  0  0
 15 44  1  0  0  0  0
 15 45  1  0  0  0  0
 16 19  1  0  0  0  0
 16 46  1  0  0  0  0
 16 47  1  0  0  0  0
 17 48  1  0  0  0  0
 17 49  1  0  0  0  0
 17 50  1  0  0  0  0
 18 51  1  0  0  0  0
 19 26  1  0  0  0  0
 20 21  1  0  0  0  0
 20 22  1  0  0  0  0
 20 52  1  6  0  0  0
 21 53  1  0  0  0  0
 21 54  1  0  0  0  0
 21 55  1  0  0  0  0
 22 24  1  0  0  0  0
 22 56  1  0  0  0  0
 22 57  1  0  0  0  0
 23 58  1  0  0  0  0
 24 27  1  0  0  0  0
 25 59  1  0  0  0  0
 26 60  1  0  0  0  0
 26 61  1  0  0  0  0
 26 62  1  0  0  0  0
 27 28  1  0  0  0  0
 27 29  2  0  0  0  0
 28 63  1  0  0  0  0
 28 64  1  0  0  0  0
 28 65  1  0  0  0  0
M  END
>  <COMPND>
    title: molecule 1

$$$$
3SMM_ligand0.pdb
 OpenBabel06042612053D

 59 61  0  0  1  0  0  0  0  0999 V2000
   23.0820  -22.1350    0.4740 C   0  0  2  0  0  0  0  0  0  0  0  0
   23.2000  -20.9960    1.5660 C   0  0  1  0  0  0  0  0  0  0  0  0
   21.9500  -20.0980    1.6600 C   0  0  0  0  0  0  0  0  0  0  0  0
   21.5900  -19.0760    0.7740 C   0  0  0  0  0  0  0  0  0  0  0  0
   22.0870  -18.6140   -0.4620 C   0  0  2  0  0  0  0  0  0  0  0  0
   23.3980  -19.3100   -0.9060 C   0  0  0  0  0  0  0  0  0  0  0  0
   23.3340  -20.6830   -1.6710 C   0  0  2  0  0  0  0  0  0  0  0  0
   23.9370  -21.7630   -0.7840 C   0  0  2  0  0  0  0  0  0  0  0  0
   23.3940  -21.5980    2.9600 C   0  0  0  0  0  0  0  0  0  0  0  0
   21.9450  -21.6720    3.5520 C   0  0  0  0  0  0  0  0  0  0  0  0
   21.2420  -20.4200    2.9900 C   0  0  2  0  0  0  0  0  0  0  0  0
   22.5640  -17.1120   -0.3730 C   0  0  2  0  0  0  0  0  0  0  0  0
   23.9470  -17.2020    0.2380 C   0  0  0  0  0  0  0  0  0  0  0  0
   24.4360  -18.4670   -0.4640 C   0  0  0  0  0  0  0  0  0  0  0  0
   20.8620  -18.7500   -1.4600 C   0  0  0  0  0  0  0  0  0  0  0  0
   19.7470  -20.6480    2.7180 C   0  0  0  0  0  0  0  0  0  0  0  0
   21.6780  -22.6000    0.0570 C   0  0  0  0  0  0  0  0  0  0  0  0
   24.0150  -22.8920   -1.6340 O   0  0  0  0  0  0  0  0  0  0  0  0
   24.1850  -20.5350   -2.8220 O   0  0  0  0  0  0  0  0  0  0  0  0
   19.0330  -20.7930    4.0070 O   0  0  0  0  0  0  0  0  0  0  0  0
   25.9490  -18.4200   -0.6150 C   0  0  0  0  0  0  0  0  0  0  0  0
   26.4480  -18.3750   -2.0610 C   0  0  0  0  0  0  0  0  0  0  0  0
   26.7150  -19.2350    0.3860 C   0  0  0  0  0  0  0  0  0  0  0  0
   21.7380  -16.3140    0.4590 O   0  0  0  0  0  0  0  0  0  0  0  0
   17.6910  -21.2360    3.7670 C   0  0  0  0  0  0  0  0  0  0  0  0
   23.5700  -23.0220    0.8790 H   0  0  0  0  0  0  0  0  0  0  0  0
   24.0850  -20.3890    1.3860 H   0  0  0  0  0  0  0  0  0  0  0  0
   20.7090  -18.5360    1.0830 H   0  0  0  0  0  0  0  0  0  0  0  0
   22.3340  -20.9250   -2.0250 H   0  0  0  0  0  0  0  0  0  0  0  0
   24.9520  -21.5150   -0.4840 H   0  0  0  0  0  0  0  0  0  0  0  0
   23.9930  -20.9170    3.5650 H   0  0  0  0  0  0  0  0  0  0  0  0
   23.9020  -22.5570    2.9670 H   0  0  0  0  0  0  0  0  0  0  0  0
   21.9620  -21.7350    4.6280 H   0  0  0  0  0  0  0  0  0  0  0  0
   21.4590  -22.5790    3.1930 H   0  0  0  0  0  0  0  0  0  0  0  0
   21.3930  -19.5730    3.6600 H   0  0  0  0  0  0  0  0  0  0  0  0
   22.6140  -16.6710   -1.3710 H   0  0  0  0  0  0  0  0  0  0  0  0
   23.9330  -17.3530    1.3160 H   0  0  0  0  0  0  0  0  0  0  0  0
   24.5040  -16.2930    0.0080 H   0  0  0  0  0  0  0  0  0  0  0  0
   21.1370  -18.4520   -2.4720 H   0  0  0  0  0  0  0  0  0  0  0  0
   20.4950  -19.7700   -1.4940 H   0  0  0  0  0  0  0  0  0  0  0  0
   20.0220  -18.1360   -1.1440 H   0  0  0  0  0  0  0  0  0  0  0  0
   19.6320  -21.5510    2.1270 H   0  0  0  0  0  0  0  0  0  0  0  0
   19.2940  -19.8260    2.1640 H   0  0  0  0  0  0  0  0  0  0  0  0
   21.6970  -23.4160   -0.6630 H   0  0  0  0  0  0  0  0  0  0  0  0
   21.1260  -22.9580    0.9230 H   0  0  0  0  0  0  0  0  0  0  0  0
   21.1010  -21.7880   -0.3790 H   0  0  0  0  0  0  0  0  0  0  0  0
   24.7700  -22.7810   -2.1990 H   0  0  0  0  0  0  0  0  0  0  0  0
   25.0640  -20.3610   -2.5190 H   0  0  0  0  0  0  0  0  0  0  0  0
   26.2380  -17.4190   -0.2960 H   0  0  0  0  0  0  0  0  0  0  0  0
   27.4780  -18.0190   -2.1030 H   0  0  0  0  0  0  0  0  0  0  0  0
   26.4420  -19.3620   -2.5200 H   0  0  0  0  0  0  0  0  0  0  0  0
   25.8430  -17.7060   -2.6740 H   0  0  0  0  0  0  0  0  0  0  0  0
   27.7660  -18.9590    0.4080 H   0  0  0  0  0  0  0  0  0  0  0  0
   26.3170  -19.0710    1.3880 H   0  0  0  0  0  0  0  0  0  0  0  0
   26.6360  -20.2950    0.1660 H   0  0  0  0  0  0  0  0  0  0  0  0
   20.8310  -16.5560    0.3230 H   0  0  0  0  0  0  0  0  0  0  0  0
   17.1830  -21.2990    4.7280 H   0  0  0  0  0  0  0  0  0  0  0  0
   17.1450  -20.5430    3.1260 H   0  0  0  0  0  0  0  0  0  0  0  0
   17.6780  -22.2300    3.3250 H   0  0  0  0  0  0  0  0  0  0  0  0
  1  2  1  0  0  0  0
  1  8  1  0  0  0  0
  1 17  1  0  0  0  0
  1 26  1  1  0  0  0
  2  3  1  0  0  0  0
  2  9  1  0  0  0  0
  2 27  1  6  0  0  0
  3  4  2  0  0  0  0
  3 11  1  0  0  0  0
  4  5  1  0  0  0  0
  4 28  1  0  0  0  0
  5  6  1  0  0  0  0
  5 12  1  0  0  0  0
  5 15  1  6  0  0  0
  6  7  1  0  0  0  0
  6 14  2  0  0  0  0
  7  8  1  0  0  0  0
  7 19  1  0  0  0  0
  7 29  1  6  0  0  0
  8 18  1  0  0  0  0
  8 30  1  1  0  0  0
  9 10  1  0  0  0  0
  9 31  1  0  0  0  0
  9 32  1  0  0  0  0
 10 11  1  0  0  0  0
 10 33  1  0  0  0  0
 10 34  1  0  0  0  0
 11 16  1  0  0  0  0
 11 35  1  1  0  0  0
 12 13  1  0  0  0  0
 12 24  1  0  0  0  0
 12 36  1  6  0  0  0
 13 14  1  0  0  0  0
 13 37  1  0  0  0  0
 13 38  1  0  0  0  0
 14 21  1  0  0  0  0
 15 39  1  0  0  0  0
 15 40  1  0  0  0  0
 15 41  1  0  0  0  0
 16 20  1  0  0  0  0
 16 42  1  0  0  0  0
 16 43  1  0  0  0  0
 17 44  1  0  0  0  0
 17 45  1  0  0  0  0
 17 46  1  0  0  0  0
 18 47  1  0  0  0  0
 19 48  1  0  0  0  0
 20 25  1  0  0  0  0
 21 22  1  0  0  0  0
 21 23  1  0  0  0  0
 21 49  1  0  0  0  0
 22 50  1  0  0  0  0
 22 51  1  0  0  0  0
 22 52  1  0  0  0  0
 23 53  1  0  0  0  0
 23 54  1  0  0  0  0
 23 55  1  0  0  0  0
 24 56  1  0  0  0  0
 25 57  1  0  0  0  0
 25 58  1  0  0  0  0
 25 59  1  0  0  0  0
M  END
>  <COMPND>
    title: molecule 1

$$$$
3SMN_ligand0.pdb
 OpenBabel06042612053D

 91 96  0  0  1  0  0  0  0  0999 V2000
   17.8070  -21.3510    4.0510 C   0  0  2  0  0  0  0  0  0  0  0  0
   17.0010  -21.2210    2.8510 O   0  0  0  0  0  0  0  0  0  0  0  0
   17.0050  -21.8370    5.2490 C   0  0  2  0  0  0  0  0  0  0  0  0
   16.3500  -23.0340    4.8880 O   0  0  0  0  0  0  0  0  0  0  0  0
   15.9610  -20.7870    5.6280 C   0  0  1  0  0  0  0  0  0  0  0  0
   15.2020  -21.2260    6.7610 O   0  0  0  0  0  0  0  0  0  0  0  0
   16.6320  -19.4140    5.9460 C   0  0  2  0  0  0  0  0  0  0  0  0
   15.6370  -18.3940    6.2300 O   0  0  0  0  0  0  0  0  0  0  0  0
   17.4710  -18.9920    4.7470 C   0  0  2  0  0  0  0  0  0  0  0  0
   18.3680  -20.0440    4.3450 O   0  0  0  0  0  0  0  0  0  0  0  0
   18.2340  -17.7440    5.1370 C   0  0  0  0  0  0  0  0  0  0  0  0
   17.2360  -16.6950    5.2780 O   0  0  0  0  0  0  0  0  0  0  0  0
   17.0400  -23.3240    1.4150 O   0  0  0  0  0  0  0  0  0  0  0  0
   17.0410  -22.1580    0.6510 C   0  0  2  0  0  0  0  0  0  0  0  0
   17.8240  -22.3940   -0.6470 C   0  0  2  0  0  0  0  0  0  0  0  0
   19.2860  -22.9030   -0.3020 C   0  0  0  0  0  0  0  0  0  0  0  0
   17.7620  -21.1460   -1.5460 C   0  0  2  0  0  0  0  0  0  0  0  0
   17.5790  -21.5640   -3.0320 C   0  0  0  0  0  0  0  0  0  0  0  0
   19.0400  -21.6060   -3.5840 C   0  0  0  0  0  0  0  0  0  0  0  0
   19.7260  -20.4180   -2.8880 C   0  0  2  0  0  0  0  0  0  0  0  0
   21.2550  -20.5790   -2.7480 C   0  0  0  0  0  0  0  0  0  0  0  0
   21.8980  -20.7430   -4.0350 O   0  0  0  0  0  0  0  0  0  0  0  0
   23.3100  -21.0650   -3.8840 C   0  0  0  0  0  0  0  0  0  0  0  0
   19.1410  -20.4350   -1.4860 C   0  0  0  0  0  0  0  0  0  0  0  0
   19.2470  -19.1280   -0.7840 C   0  0  0  0  0  0  0  0  0  0  0  0
   18.9560  -18.9700    0.7250 C   0  0  1  0  0  0  0  0  0  0  0  0
   20.1810  -19.0830    1.6710 C   0  0  0  0  0  0  0  0  0  0  0  0
   18.4640  -17.4650    0.7220 C   0  0  1  0  0  0  0  0  0  0  0  0
   18.9810  -16.6390   -0.3260 O   0  0  0  0  0  0  0  0  0  0  0  0
   17.9930  -16.5700   -1.4580 C   0  0  0  0  0  0  0  0  0  0  0  0
   16.6830  -17.2000   -1.0000 C   0  0  0  0  0  0  0  0  0  0  0  0
   16.9420  -17.5050    0.4730 C   0  0  1  0  0  0  0  0  0  0  0  0
   16.5260  -18.9310    0.6670 C   0  0  0  0  0  0  0  0  0  0  0  0
   15.1010  -18.8850    1.1850 C   0  0  0  0  0  0  0  0  0  0  0  0
   14.2280  -19.4960    0.0630 C   0  0  0  0  0  0  0  0  0  0  0  0
   14.8370  -19.4760    2.5650 C   0  0  0  0  0  0  0  0  0  0  0  0
   17.6830  -19.6110    1.3990 C   0  0  0  0  0  0  0  0  0  0  0  0
   17.7410  -21.1450    1.5880 C   0  0  1  0  0  0  0  0  0  0  0  0
   16.0340  -16.9520    6.0570 C   0  0  0  0  0  0  0  0  0  0  0  0
   14.8910  -16.2110    5.3300 C   0  0  0  0  0  0  0  0  0  0  0  0
   16.2640  -16.3900    7.4630 C   0  0  0  0  0  0  0  0  0  0  0  0
   18.6240  -22.0370    3.8480 H   0  0  0  0  0  0  0  0  0  0  0  0
   17.6880  -22.0200    6.0800 H   0  0  0  0  0  0  0  0  0  0  0  0
   15.7490  -23.2420    5.5910 H   0  0  0  0  0  0  0  0  0  0  0  0
   15.2430  -20.6720    4.8250 H   0  0  0  0  0  0  0  0  0  0  0  0
   14.6470  -20.5130    7.0410 H   0  0  0  0  0  0  0  0  0  0  0  0
   17.2740  -19.5220    6.8220 H   0  0  0  0  0  0  0  0  0  0  0  0
   16.9530  -18.7090    3.8560 H   0  0  0  0  0  0  0  0  0  0  0  0
   18.9450  -17.4550    4.3630 H   0  0  0  0  0  0  0  0  0  0  0  0
   18.7910  -17.8770    6.0660 H   0  0  0  0  0  0  0  0  0  0  0  0
   17.9340  -23.6120    1.5320 H   0  0  0  0  0  0  0  0  0  0  0  0
   16.0080  -21.8870    0.4570 H   0  0  0  0  0  0  0  0  0  0  0  0
   17.3150  -23.2160   -1.1510 H   0  0  0  0  0  0  0  0  0  0  0  0
   19.8380  -23.1240   -1.2110 H   0  0  0  0  0  0  0  0  0  0  0  0
   19.8830  -22.1830    0.2470 H   0  0  0  0  0  0  0  0  0  0  0  0
   19.2790  -23.8250    0.2730 H   0  0  0  0  0  0  0  0  0  0  0  0
   16.9340  -20.4920   -1.2890 H   0  0  0  0  0  0  0  0  0  0  0  0
   17.0220  -20.7870   -3.5580 H   0  0  0  0  0  0  0  0  0  0  0  0
   17.0410  -22.4950   -3.1820 H   0  0  0  0  0  0  0  0  0  0  0  0
   19.0470  -21.5320   -4.6570 H   0  0  0  0  0  0  0  0  0  0  0  0
   19.5190  -22.5500   -3.3250 H   0  0  0  0  0  0  0  0  0  0  0  0
   19.4630  -19.4880   -3.3950 H   0  0  0  0  0  0  0  0  0  0  0  0
   21.4650  -21.4590   -2.1420 H   0  0  0  0  0  0  0  0  0  0  0  0
   21.6910  -19.7230   -2.2330 H   0  0  0  0  0  0  0  0  0  0  0  0
   23.7560  -21.1430   -4.8750 H   0  0  0  0  0  0  0  0  0  0  0  0
   23.8360  -20.2900   -3.3250 H   0  0  0  0  0  0  0  0  0  0  0  0
   23.4440  -22.0210   -3.3790 H   0  0  0  0  0  0  0  0  0  0  0  0
   20.0410  -18.5000   -1.1540 H   0  0  0  0  0  0  0  0  0  0  0  0
   19.9340  -18.8220    2.6980 H   0  0  0  0  0  0  0  0  0  0  0  0
   20.5770  -20.0920    1.6520 H   0  0  0  0  0  0  0  0  0  0  0  0
   20.9870  -18.4280    1.3430 H   0  0  0  0  0  0  0  0  0  0  0  0
   18.6700  -17.0000    1.6870 H   0  0  0  0  0  0  0  0  0  0  0  0
   18.3930  -17.0410   -2.3530 H   0  0  0  0  0  0  0  0  0  0  0  0
   17.8180  -15.5180   -1.6610 H   0  0  0  0  0  0  0  0  0  0  0  0
   16.4890  -18.0970   -1.5890 H   0  0  0  0  0  0  0  0  0  0  0  0
   15.8350  -16.5280   -1.1340 H   0  0  0  0  0  0  0  0  0  0  0  0
   16.4800  -16.7680    1.1310 H   0  0  0  0  0  0  0  0  0  0  0  0
   14.7360  -17.8600    1.2630 H   0  0  0  0  0  0  0  0  0  0  0  0
   13.2100  -19.5260    0.4030 H   0  0  0  0  0  0  0  0  0  0  0  0
   14.2590  -18.8980   -0.8490 H   0  0  0  0  0  0  0  0  0  0  0  0
   14.5250  -20.5080   -0.1920 H   0  0  0  0  0  0  0  0  0  0  0  0
   13.7590  -19.3870    2.6810 H   0  0  0  0  0  0  0  0  0  0  0  0
   14.9410  -20.5490    2.6430 H   0  0  0  0  0  0  0  0  0  0  0  0
   15.1190  -18.8860    3.4170 H   0  0  0  0  0  0  0  0  0  0  0  0
   18.7650  -21.4330    1.7980 H   0  0  0  0  0  0  0  0  0  0  0  0
   15.1290  -15.1510    5.2410 H   0  0  0  0  0  0  0  0  0  0  0  0
   14.7570  -16.6270    4.3310 H   0  0  0  0  0  0  0  0  0  0  0  0
   13.9600  -16.3210    5.8870 H   0  0  0  0  0  0  0  0  0  0  0  0
   16.5160  -15.3310    7.4070 H   0  0  0  0  0  0  0  0  0  0  0  0
   15.3640  -16.5110    8.0670 H   0  0  0  0  0  0  0  0  0  0  0  0
   17.0860  -16.9210    7.9440 H   0  0  0  0  0  0  0  0  0  0  0  0
  1  2  1  0  0  0  0
  1  3  1  0  0  0  0
  1 10  1  0  0  0  0
  1 42  1  6  0  0  0
  2 38  1  0  0  0  0
  3  4  1  0  0  0  0
  3  5  1  0  0  0  0
  3 43  1  1  0  0  0
  4 44  1  0  0  0  0
  5  6  1  0  0  0  0
  5  7  1  0  0  0  0
  5 45  1  6  0  0  0
  6 46  1  0  0  0  0
  7  8  1  0  0  0  0
  7  9  1  0  0  0  0
  7 47  1  1  0  0  0
  8 39  1  0  0  0  0
  9 10  1  0  0  0  0
  9 11  1  0  0  0  0
  9 48  1  6  0  0  0
 11 12  1  0  0  0  0
 11 49  1  0  0  0  0
 11 50  1  0  0  0  0
 12 39  1  0  0  0  0
 13 14  1  0  0  0  0
 13 51  1  0  0  0  0
 14 15  1  0  0  0  0
 14 38  1  0  0  0  0
 14 52  1  6  0  0  0
 15 16  1  0  0  0  0
 15 17  1  0  0  0  0
 15 53  1  6  0  0  0
 16 54  1  0  0  0  0
 16 55  1  0  0  0  0
 16 56  1  0  0  0  0
 17 18  1  0  0  0  0
 17 24  1  0  0  0  0
 17 57  1  1  0  0  0
 18 19  1  0  0  0  0
 18 58  1  0  0  0  0
 18 59  1  0  0  0  0
 19 20  1  0  0  0  0
 19 60  1  0  0  0  0
 19 61  1  0  0  0  0
 20 21  1  0  0  0  0
 20 24  1  0  0  0  0
 20 62  1  6  0  0  0
 21 22  1  0  0  0  0
 21 63  1  0  0  0  0
 21 64  1  0  0  0  0
 22 23  1  0  0  0  0
 23 65  1  0  0  0  0
 23 66  1  0  0  0  0
 23 67  1  0  0  0  0
 24 25  2  0  0  0  0
 25 26  1  0  0  0  0
 25 68  1  0  0  0  0
 26 27  1  1  0  0  0
 26 28  1  0  0  0  0
 26 37  1  0  0  0  0
 27 69  1  0  0  0  0
 27 70  1  0  0  0  0
 27 71  1  0  0  0  0
 28 29  1  0  0  0  0
 28 32  1  0  0  0  0
 28 72  1  1  0  0  0
 29 30  1  0  0  0  0
 30 31  1  0  0  0  0
 30 73  1  0  0  0  0
 30 74  1  0  0  0  0
 31 32  1  0  0  0  0
 31 75  1  0  0  0  0
 31 76  1  0  0  0  0
 32 33  1  0  0  0  0
 32 77  1  1  0  0  0
 33 34  1  0  0  0  0
 33 37  2  0  0  0  0
 34 35  1  0  0  0  0
 34 36  1  0  0  0  0
 34 78  1  0  0  0  0
 35 79  1  0  0  0  0
 35 80  1  0  0  0  0
 35 81  1  0  0  0  0
 36 82  1  0  0  0  0
 36 83  1  0  0  0  0
 36 84  1  0  0  0  0
 37 38  1  0  0  0  0
 38 85  1  1  0  0  0
 39 40  1  0  0  0  0
 39 41  1  0  0  0  0
 40 86  1  0  0  0  0
 40 87  1  0  0  0  0
 40 88  1  0  0  0  0
 41 89  1  0  0  0  0
 41 90  1  0  0  0  0
 41 91  1  0  0  0  0
M  END
>  <COMPND>
    title: molecule 1

$$$$
3SMO_ligand0.pdb
 OpenBabel06042612053D

 59 61  0  0  1  0  0  0  0  0999 V2000
  -17.8440  -22.0590    0.4510 C   0  0  2  0  0  0  0  0  0  0  0  0
  -17.7070  -20.9870    1.5650 C   0  0  1  0  0  0  0  0  0  0  0  0
  -19.0310  -20.2380    1.6030 C   0  0  0  0  0  0  0  0  0  0  0  0
  -19.3380  -19.0120    0.8690 C   0  0  0  0  0  0  0  0  0  0  0  0
  -18.8420  -18.6680   -0.4920 C   0  0  2  0  0  0  0  0  0  0  0  0
  -17.5150  -19.3020   -0.9340 C   0  0  0  0  0  0  0  0  0  0  0  0
  -17.5420  -20.6200   -1.6700 C   0  0  2  0  0  0  0  0  0  0  0  0
  -16.9680  -21.7270   -0.7630 C   0  0  2  0  0  0  0  0  0  0  0  0
  -17.6090  -21.5920    2.9860 C   0  0  0  0  0  0  0  0  0  0  0  0
  -19.0320  -21.6260    3.5920 C   0  0  0  0  0  0  0  0  0  0  0  0
  -19.6570  -20.3980    2.9460 C   0  0  2  0  0  0  0  0  0  0  0  0
  -18.3650  -17.1990   -0.3610 C   0  0  2  0  0  0  0  0  0  0  0  0
  -16.8950  -17.3010    0.1400 C   0  0  0  0  0  0  0  0  0  0  0  0
  -16.4720  -18.5500   -0.5780 C   0  0  0  0  0  0  0  0  0  0  0  0
  -20.0150  -18.8080   -1.5020 C   0  0  0  0  0  0  0  0  0  0  0  0
  -21.1550  -20.6120    2.7060 C   0  0  0  0  0  0  0  0  0  0  0  0
  -19.3320  -22.5410    0.0800 C   0  0  0  0  0  0  0  0  0  0  0  0
  -16.8580  -22.8990   -1.6360 O   0  0  0  0  0  0  0  0  0  0  0  0
  -16.7910  -20.4180   -2.8850 O   0  0  0  0  0  0  0  0  0  0  0  0
  -21.7150  -20.8590    4.0090 O   0  0  0  0  0  0  0  0  0  0  0  0
  -15.0080  -18.8180   -0.8180 C   0  0  0  0  0  0  0  0  0  0  0  0
  -14.3210  -18.6950    0.5100 C   0  0  0  0  0  0  0  0  0  0  0  0
  -14.4820  -17.7580   -1.8220 C   0  0  0  0  0  0  0  0  0  0  0  0
  -19.1530  -16.3090    0.4320 O   0  0  0  0  0  0  0  0  0  0  0  0
  -23.1640  -21.0160    3.9380 C   0  0  0  0  0  0  0  0  0  0  0  0
  -17.3720  -22.9550    0.8570 H   0  0  0  0  0  0  0  0  0  0  0  0
  -16.8570  -20.3260    1.4200 H   0  0  0  0  0  0  0  0  0  0  0  0
  -20.1840  -18.4320    1.2090 H   0  0  0  0  0  0  0  0  0  0  0  0
  -18.5460  -20.8850   -1.9920 H   0  0  0  0  0  0  0  0  0  0  0  0
  -15.9590  -21.4910   -0.4280 H   0  0  0  0  0  0  0  0  0  0  0  0
  -16.9840  -20.9390    3.5950 H   0  0  0  0  0  0  0  0  0  0  0  0
  -17.1360  -22.5690    3.0050 H   0  0  0  0  0  0  0  0  0  0  0  0
  -19.0130  -21.6040    4.6720 H   0  0  0  0  0  0  0  0  0  0  0  0
  -19.5390  -22.5410    3.2860 H   0  0  0  0  0  0  0  0  0  0  0  0
  -19.4600  -19.5110    3.5490 H   0  0  0  0  0  0  0  0  0  0  0  0
  -18.3410  -16.7680   -1.3620 H   0  0  0  0  0  0  0  0  0  0  0  0
  -16.8300  -17.4440    1.2180 H   0  0  0  0  0  0  0  0  0  0  0  0
  -16.3230  -16.4170   -0.1380 H   0  0  0  0  0  0  0  0  0  0  0  0
  -19.7080  -18.5470   -2.5150 H   0  0  0  0  0  0  0  0  0  0  0  0
  -20.4190  -19.8170   -1.5160 H   0  0  0  0  0  0  0  0  0  0  0  0
  -20.8420  -18.1550   -1.2280 H   0  0  0  0  0  0  0  0  0  0  0  0
  -21.3320  -21.4720    2.0670 H   0  0  0  0  0  0  0  0  0  0  0  0
  -21.6340  -19.7440    2.2520 H   0  0  0  0  0  0  0  0  0  0  0  0
  -19.3030  -23.4010   -0.5870 H   0  0  0  0  0  0  0  0  0  0  0  0
  -19.8820  -22.8420    0.9670 H   0  0  0  0  0  0  0  0  0  0  0  0
  -19.9090  -21.7660   -0.4190 H   0  0  0  0  0  0  0  0  0  0  0  0
  -16.7770  -22.5900   -2.5300 H   0  0  0  0  0  0  0  0  0  0  0  0
  -15.8960  -20.2030   -2.6480 H   0  0  0  0  0  0  0  0  0  0  0  0
  -14.8410  -19.8110   -1.2290 H   0  0  0  0  0  0  0  0  0  0  0  0
  -13.2810  -19.0080    0.4370 H   0  0  0  0  0  0  0  0  0  0  0  0
  -14.3190  -17.6720    0.8880 H   0  0  0  0  0  0  0  0  0  0  0  0
  -14.7870  -19.3240    1.2670 H   0  0  0  0  0  0  0  0  0  0  0  0
  -13.4400  -17.9560   -2.0720 H   0  0  0  0  0  0  0  0  0  0  0  0
  -15.0500  -17.7820   -2.7530 H   0  0  0  0  0  0  0  0  0  0  0  0
  -14.5280  -16.7430   -1.4280 H   0  0  0  0  0  0  0  0  0  0  0  0
  -19.1930  -16.6570    1.3110 H   0  0  0  0  0  0  0  0  0  0  0  0
  -23.5640  -21.1340    4.9450 H   0  0  0  0  0  0  0  0  0  0  0  0
  -23.6360  -20.1430    3.4850 H   0  0  0  0  0  0  0  0  0  0  0  0
  -23.4330  -21.9020    3.3640 H   0  0  0  0  0  0  0  0  0  0  0  0
  1  2  1  0  0  0  0
  1  8  1  0  0  0  0
  1 17  1  0  0  0  0
  1 26  1  1  0  0  0
  2  3  1  0  0  0  0
  2  9  1  0  0  0  0
  2 27  1  6  0  0  0
  3  4  2  0  0  0  0
  3 11  1  0  0  0  0
  4  5  1  0  0  0  0
  4 28  1  0  0  0  0
  5  6  1  0  0  0  0
  5 12  1  0  0  0  0
  5 15  1  6  0  0  0
  6  7  1  0  0  0  0
  6 14  2  0  0  0  0
  7  8  1  0  0  0  0
  7 19  1  0  0  0  0
  7 29  1  6  0  0  0
  8 18  1  0  0  0  0
  8 30  1  1  0  0  0
  9 10  1  0  0  0  0
  9 31  1  0  0  0  0
  9 32  1  0  0  0  0
 10 11  1  0  0  0  0
 10 33  1  0  0  0  0
 10 34  1  0  0  0  0
 11 16  1  0  0  0  0
 11 35  1  1  0  0  0
 12 13  1  0  0  0  0
 12 24  1  0  0  0  0
 12 36  1  6  0  0  0
 13 14  1  0  0  0  0
 13 37  1  0  0  0  0
 13 38  1  0  0  0  0
 14 21  1  0  0  0  0
 15 39  1  0  0  0  0
 15 40  1  0  0  0  0
 15 41  1  0  0  0  0
 16 20  1  0  0  0  0
 16 42  1  0  0  0  0
 16 43  1  0  0  0  0
 17 44  1  0  0  0  0
 17 45  1  0  0  0  0
 17 46  1  0  0  0  0
 18 47  1  0  0  0  0
 19 48  1  0  0  0  0
 20 25  1  0  0  0  0
 21 22  1  0  0  0  0
 21 23  1  0  0  0  0
 21 49  1  0  0  0  0
 22 50  1  0  0  0  0
 22 51  1  0  0  0  0
 22 52  1  0  0  0  0
 23 53  1  0  0  0  0
 23 54  1  0  0  0  0
 23 55  1  0  0  0  0
 24 56  1  0  0  0  0
 25 57  1  0  0  0  0
 25 58  1  0  0  0  0
 25 59  1  0  0  0  0
M  END
>  <COMPND>
    title: molecule 1

$$$$
3SP5_ligand0.pdb
 OpenBabel06042612053D

 59 61  0  0  1  0  0  0  0  0999 V2000
  -17.9340  -22.2200    0.3520 C   0  0  2  0  0  0  0  0  0  0  0  0
  -17.8760  -21.2370    1.5540 C   0  0  1  0  0  0  0  0  0  0  0  0
  -19.2110  -20.4440    1.6480 C   0  0  0  0  0  0  0  0  0  0  0  0
  -19.5220  -19.2280    0.9030 C   0  0  0  0  0  0  0  0  0  0  0  0
  -18.9930  -18.7690   -0.4140 C   0  0  2  0  0  0  0  0  0  0  0  0
  -17.6440  -19.3530   -0.8160 C   0  0  0  0  0  0  0  0  0  0  0  0
  -17.5680  -20.6040   -1.6250 C   0  0  2  0  0  0  0  0  0  0  0  0
  -17.0240  -21.8100   -0.8160 C   0  0  2  0  0  0  0  0  0  0  0  0
  -17.8350  -21.9880    2.8790 C   0  0  0  0  0  0  0  0  0  0  0  0
  -19.3030  -22.0670    3.3930 C   0  0  0  0  0  0  0  0  0  0  0  0
  -19.8140  -20.6960    3.0050 C   0  0  2  0  0  0  0  0  0  0  0  0
  -18.6840  -17.3050   -0.0990 C   0  0  0  0  0  0  0  0  0  0  0  0
  -17.2040  -17.3250    0.3210 C   0  0  0  0  0  0  0  0  0  0  0  0
  -16.6810  -18.5340   -0.3870 C   0  0  0  0  0  0  0  0  0  0  0  0
  -20.1500  -18.9060   -1.4390 C   0  0  0  0  0  0  0  0  0  0  0  0
  -21.3640  -20.6570    2.8640 C   0  0  0  0  0  0  0  0  0  0  0  0
  -19.4080  -22.6060   -0.0830 C   0  0  0  0  0  0  0  0  0  0  0  0
  -16.8940  -22.8890   -1.7970 O   0  0  0  0  0  0  0  0  0  0  0  0
  -16.8050  -20.2720   -2.7910 O   0  0  0  0  0  0  0  0  0  0  0  0
  -19.4200  -19.8480    4.0990 O   0  0  0  0  0  0  0  0  0  0  0  0
  -21.9100  -21.1390    4.0970 O   0  0  0  0  0  0  0  0  0  0  0  0
  -15.2040  -18.3910   -0.5000 C   0  0  0  0  0  0  0  0  0  0  0  0
  -14.6590  -17.8030   -1.8100 C   0  0  0  0  0  0  0  0  0  0  0  0
  -14.3770  -19.0190    0.5930 C   0  0  0  0  0  0  0  0  0  0  0  0
  -23.3550  -21.1890    4.0670 C   0  0  0  0  0  0  0  0  0  0  0  0
  -17.4900  -23.1570    0.6870 H   0  0  0  0  0  0  0  0  0  0  0  0
  -17.0120  -20.5750    1.5060 H   0  0  0  0  0  0  0  0  0  0  0  0
  -20.3630  -18.6520    1.2580 H   0  0  0  0  0  0  0  0  0  0  0  0
  -18.5490  -20.8610   -2.0180 H   0  0  0  0  0  0  0  0  0  0  0  0
  -16.0230  -21.5930   -0.4410 H   0  0  0  0  0  0  0  0  0  0  0  0
  -17.2360  -21.4210    3.5930 H   0  0  0  0  0  0  0  0  0  0  0  0
  -17.3750  -22.9670    2.8100 H   0  0  0  0  0  0  0  0  0  0  0  0
  -19.3580  -22.2800    4.4600 H   0  0  0  0  0  0  0  0  0  0  0  0
  -19.8500  -22.8590    2.8860 H   0  0  0  0  0  0  0  0  0  0  0  0
  -19.3200  -16.8190    0.6410 H   0  0  0  0  0  0  0  0  0  0  0  0
  -18.7780  -16.7200   -1.0140 H   0  0  0  0  0  0  0  0  0  0  0  0
  -17.0870  -17.4350    1.3970 H   0  0  0  0  0  0  0  0  0  0  0  0
  -16.7620  -16.3750    0.0130 H   0  0  0  0  0  0  0  0  0  0  0  0
  -19.8390  -18.5800   -2.4320 H   0  0  0  0  0  0  0  0  0  0  0  0
  -20.5100  -19.9250   -1.5150 H   0  0  0  0  0  0  0  0  0  0  0  0
  -21.0060  -18.2970   -1.1500 H   0  0  0  0  0  0  0  0  0  0  0  0
  -21.6750  -21.3010    2.0500 H   0  0  0  0  0  0  0  0  0  0  0  0
  -21.7370  -19.6550    2.6560 H   0  0  0  0  0  0  0  0  0  0  0  0
  -19.3860  -23.3710   -0.8580 H   0  0  0  0  0  0  0  0  0  0  0  0
  -19.9880  -23.0180    0.7370 H   0  0  0  0  0  0  0  0  0  0  0  0
  -19.9650  -21.7690   -0.4890 H   0  0  0  0  0  0  0  0  0  0  0  0
  -16.1430  -22.6990   -2.3480 H   0  0  0  0  0  0  0  0  0  0  0  0
  -16.8130  -21.0210   -3.3790 H   0  0  0  0  0  0  0  0  0  0  0  0
  -19.4690  -18.9410    3.8280 H   0  0  0  0  0  0  0  0  0  0  0  0
  -15.0230  -17.4290   -0.0210 H   0  0  0  0  0  0  0  0  0  0  0  0
  -13.6240  -17.4840   -1.6970 H   0  0  0  0  0  0  0  0  0  0  0  0
  -14.6890  -18.5390   -2.6080 H   0  0  0  0  0  0  0  0  0  0  0  0
  -15.2420  -16.9410   -2.1410 H   0  0  0  0  0  0  0  0  0  0  0  0
  -13.3660  -18.6160    0.6110 H   0  0  0  0  0  0  0  0  0  0  0  0
  -14.8190  -18.8710    1.5780 H   0  0  0  0  0  0  0  0  0  0  0  0
  -14.3080  -20.0900    0.4270 H   0  0  0  0  0  0  0  0  0  0  0  0
  -23.7290  -21.4670    5.0520 H   0  0  0  0  0  0  0  0  0  0  0  0
  -23.7740  -20.2170    3.8050 H   0  0  0  0  0  0  0  0  0  0  0  0
  -23.7060  -21.9300    3.3500 H   0  0  0  0  0  0  0  0  0  0  0  0
  1  2  1  0  0  0  0
  1  8  1  0  0  0  0
  1 17  1  0  0  0  0
  1 26  1  1  0  0  0
  2  3  1  0  0  0  0
  2  9  1  0  0  0  0
  2 27  1  6  0  0  0
  3  4  2  0  0  0  0
  3 11  1  0  0  0  0
  4  5  1  0  0  0  0
  4 28  1  0  0  0  0
  5  6  1  0  0  0  0
  5 12  1  0  0  0  0
  5 15  1  6  0  0  0
  6  7  1  0  0  0  0
  6 14  2  0  0  0  0
  7  8  1  0  0  0  0
  7 19  1  0  0  0  0
  7 29  1  6  0  0  0
  8 18  1  0  0  0  0
  8 30  1  1  0  0  0
  9 10  1  0  0  0  0
  9 31  1  0  0  0  0
  9 32  1  0  0  0  0
 10 11  1  0  0  0  0
 10 33  1  0  0  0  0
 10 34  1  0  0  0  0
 11 16  1  0  0  0  0
 11 20  1  1  0  0  0
 12 13  1  0  0  0  0
 12 35  1  0  0  0  0
 12 36  1  0  0  0  0
 13 14  1  0  0  0  0
 13 37  1  0  0  0  0
 13 38  1  0  0  0  0
 14 22  1  0  0  0  0
 15 39  1  0  0  0  0
 15 40  1  0  0  0  0
 15 41  1  0  0  0  0
 16 21  1  0  0  0  0
 16 42  1  0  0  0  0
 16 43  1  0  0  0  0
 17 44  1  0  0  0  0
 17 45  1  0  0  0  0
 17 46  1  0  0  0  0
 18 47  1  0  0  0  0
 19 48  1  0  0  0  0
 20 49  1  0  0  0  0
 21 25  1  0  0  0  0
 22 23  1  0  0  0  0
 22 24  1  0  0  0  0
 22 50  1  0  0  0  0
 23 51  1  0  0  0  0
 23 52  1  0  0  0  0
 23 53  1  0  0  0  0
 24 54  1  0  0  0  0
 24 55  1  0  0  0  0
 24 56  1  0  0  0  0
 25 57  1  0  0  0  0
 25 58  1  0  0  0  0
 25 59  1  0  0  0  0
M  END
>  <COMPND>
    title: molecule 1

$$$$
3SPR_ligand0.pdb
 OpenBabel06042612053D

 91 96  0  0  1  0  0  0  0  0999 V2000
   17.2760  -20.7530    4.0680 C   0  0  2  0  0  0  0  0  0  0  0  0
   16.5460  -20.8000    2.8300 O   0  0  0  0  0  0  0  0  0  0  0  0
   16.3840  -21.1980    5.2400 C   0  0  2  0  0  0  0  0  0  0  0  0
   15.6820  -22.3540    4.8370 O   0  0  0  0  0  0  0  0  0  0  0  0
   15.3560  -20.1130    5.5900 C   0  0  1  0  0  0  0  0  0  0  0  0
   14.5140  -20.6240    6.6230 O   0  0  0  0  0  0  0  0  0  0  0  0
   16.0300  -18.7400    5.9460 C   0  0  2  0  0  0  0  0  0  0  0  0
   15.0930  -17.6170    6.1030 O   0  0  0  0  0  0  0  0  0  0  0  0
   16.9070  -18.4010    4.7510 C   0  0  2  0  0  0  0  0  0  0  0  0
   17.8140  -19.4350    4.3150 O   0  0  0  0  0  0  0  0  0  0  0  0
   17.7110  -17.1800    5.1060 C   0  0  0  0  0  0  0  0  0  0  0  0
   16.8080  -16.0690    5.0950 O   0  0  0  0  0  0  0  0  0  0  0  0
   16.5700  -22.8280    1.4060 O   0  0  0  0  0  0  0  0  0  0  0  0
   16.6020  -21.6650    0.6440 C   0  0  2  0  0  0  0  0  0  0  0  0
   17.4260  -21.9730   -0.5930 C   0  0  2  0  0  0  0  0  0  0  0  0
   18.9170  -22.3070   -0.1290 C   0  0  0  0  0  0  0  0  0  0  0  0
   17.2980  -20.7840   -1.5770 C   0  0  2  0  0  0  0  0  0  0  0  0
   17.1340  -21.2720   -3.0250 C   0  0  0  0  0  0  0  0  0  0  0  0
   18.5850  -21.2110   -3.6000 C   0  0  0  0  0  0  0  0  0  0  0  0
   19.2080  -19.9910   -2.9540 C   0  0  2  0  0  0  0  0  0  0  0  0
   20.7600  -20.1180   -2.7960 C   0  0  0  0  0  0  0  0  0  0  0  0
   21.4140  -20.2230   -4.0330 O   0  0  0  0  0  0  0  0  0  0  0  0
   22.7340  -20.7460   -3.8260 C   0  0  0  0  0  0  0  0  0  0  0  0
   18.6750  -20.0590   -1.5430 C   0  0  0  0  0  0  0  0  0  0  0  0
   18.8680  -18.7510   -0.8160 C   0  0  0  0  0  0  0  0  0  0  0  0
   18.4920  -18.4710    0.6630 C   0  0  1  0  0  0  0  0  0  0  0  0
   19.7050  -18.6540    1.5680 C   0  0  0  0  0  0  0  0  0  0  0  0
   18.0180  -16.9750    0.6230 C   0  0  1  0  0  0  0  0  0  0  0  0
   18.5720  -16.2210   -0.4370 O   0  0  0  0  0  0  0  0  0  0  0  0
   17.5950  -16.0330   -1.5480 C   0  0  0  0  0  0  0  0  0  0  0  0
   16.3200  -16.7550   -1.1380 C   0  0  0  0  0  0  0  0  0  0  0  0
   16.5030  -16.9970    0.3470 C   0  0  1  0  0  0  0  0  0  0  0  0
   16.0680  -18.4260    0.5630 C   0  0  0  0  0  0  0  0  0  0  0  0
   14.6060  -18.3020    1.0360 C   0  0  0  0  0  0  0  0  0  0  0  0
   13.7460  -19.0630    0.0260 C   0  0  0  0  0  0  0  0  0  0  0  0
   14.2550  -18.4420    2.5310 C   0  0  0  0  0  0  0  0  0  0  0  0
   17.2070  -19.0960    1.3450 C   0  0  0  0  0  0  0  0  0  0  0  0
   17.2670  -20.6350    1.5890 C   0  0  1  0  0  0  0  0  0  0  0  0
   15.6310  -16.2330    5.9850 C   0  0  0  0  0  0  0  0  0  0  0  0
   14.5010  -15.3600    5.3780 C   0  0  0  0  0  0  0  0  0  0  0  0
   16.0500  -15.8130    7.4030 C   0  0  0  0  0  0  0  0  0  0  0  0
   18.0750  -21.4620    3.9360 H   0  0  0  0  0  0  0  0  0  0  0  0
   17.0170  -21.4200    6.1000 H   0  0  0  0  0  0  0  0  0  0  0  0
   15.2510  -22.2020    4.0020 H   0  0  0  0  0  0  0  0  0  0  0  0
   14.6660  -19.9780    4.7720 H   0  0  0  0  0  0  0  0  0  0  0  0
   14.2000  -21.4720    6.3460 H   0  0  0  0  0  0  0  0  0  0  0  0
   16.6330  -18.8460    6.8490 H   0  0  0  0  0  0  0  0  0  0  0  0
   16.3350  -18.1620    3.8750 H   0  0  0  0  0  0  0  0  0  0  0  0
   18.4750  -16.9960    4.3510 H   0  0  0  0  0  0  0  0  0  0  0  0
   18.2250  -17.2800    6.0630 H   0  0  0  0  0  0  0  0  0  0  0  0
   17.4510  -23.0260    1.6830 H   0  0  0  0  0  0  0  0  0  0  0  0
   15.5770  -21.3880    0.3960 H   0  0  0  0  0  0  0  0  0  0  0  0
   17.0070  -22.8690   -1.0510 H   0  0  0  0  0  0  0  0  0  0  0  0
   19.5230  -22.5500   -0.9960 H   0  0  0  0  0  0  0  0  0  0  0  0
   19.4620  -21.5110    0.3640 H   0  0  0  0  0  0  0  0  0  0  0  0
   18.9390  -23.1810    0.5170 H   0  0  0  0  0  0  0  0  0  0  0  0
   16.4710  -20.1190   -1.3440 H   0  0  0  0  0  0  0  0  0  0  0  0
   16.4880  -20.5840   -3.5670 H   0  0  0  0  0  0  0  0  0  0  0  0
   16.7070  -22.2550   -3.1000 H   0  0  0  0  0  0  0  0  0  0  0  0
   18.5630  -21.1660   -4.6710 H   0  0  0  0  0  0  0  0  0  0  0  0
   19.1290  -22.1160   -3.3250 H   0  0  0  0  0  0  0  0  0  0  0  0
   18.8980  -19.0710   -3.4520 H   0  0  0  0  0  0  0  0  0  0  0  0
   20.9550  -21.0130   -2.2070 H   0  0  0  0  0  0  0  0  0  0  0  0
   21.1830  -19.2840   -2.2420 H   0  0  0  0  0  0  0  0  0  0  0  0
   23.2180  -20.7800   -4.8010 H   0  0  0  0  0  0  0  0  0  0  0  0
   23.3130  -20.1120   -3.1550 H   0  0  0  0  0  0  0  0  0  0  0  0
   22.7110  -21.7640   -3.4380 H   0  0  0  0  0  0  0  0  0  0  0  0
   19.6580  -18.1450   -1.2050 H   0  0  0  0  0  0  0  0  0  0  0  0
   19.4800  -18.3640    2.5930 H   0  0  0  0  0  0  0  0  0  0  0  0
   20.0610  -19.6790    1.5620 H   0  0  0  0  0  0  0  0  0  0  0  0
   20.5410  -18.0460    1.2260 H   0  0  0  0  0  0  0  0  0  0  0  0
   18.2180  -16.4850    1.5770 H   0  0  0  0  0  0  0  0  0  0  0  0
   18.0190  -16.4170   -2.4600 H   0  0  0  0  0  0  0  0  0  0  0  0
   17.3820  -14.9720   -1.6330 H   0  0  0  0  0  0  0  0  0  0  0  0
   16.2700  -17.7130   -1.6520 H   0  0  0  0  0  0  0  0  0  0  0  0
   15.4140  -16.1930   -1.3680 H   0  0  0  0  0  0  0  0  0  0  0  0
   16.0310  -16.2330    0.9680 H   0  0  0  0  0  0  0  0  0  0  0  0
   14.2590  -17.2890    0.8280 H   0  0  0  0  0  0  0  0  0  0  0  0
   13.4150  -20.0220    0.4270 H   0  0  0  0  0  0  0  0  0  0  0  0
   12.8730  -18.4810   -0.2560 H   0  0  0  0  0  0  0  0  0  0  0  0
   14.2780  -19.2580   -0.9060 H   0  0  0  0  0  0  0  0  0  0  0  0
   13.1750  -18.5120    2.6620 H   0  0  0  0  0  0  0  0  0  0  0  0
   14.6790  -19.3640    2.8860 H   0  0  0  0  0  0  0  0  0  0  0  0
   14.5730  -17.5760    3.1030 H   0  0  0  0  0  0  0  0  0  0  0  0
   18.2770  -20.9100    1.8580 H   0  0  0  0  0  0  0  0  0  0  0  0
   14.8280  -14.3220    5.3160 H   0  0  0  0  0  0  0  0  0  0  0  0
   14.2520  -15.7100    4.3770 H   0  0  0  0  0  0  0  0  0  0  0  0
   13.6110  -15.4150    6.0050 H   0  0  0  0  0  0  0  0  0  0  0  0
   16.4310  -14.7920    7.3890 H   0  0  0  0  0  0  0  0  0  0  0  0
   15.1920  -15.8610    8.0730 H   0  0  0  0  0  0  0  0  0  0  0  0
   16.8290  -16.4730    7.7850 H   0  0  0  0  0  0  0  0  0  0  0  0
  1  2  1  0  0  0  0
  1  3  1  0  0  0  0
  1 10  1  0  0  0  0
  1 42  1  6  0  0  0
  2 38  1  0  0  0  0
  3  4  1  0  0  0  0
  3  5  1  0  0  0  0
  3 43  1  1  0  0  0
  4 44  1  0  0  0  0
  5  6  1  0  0  0  0
  5  7  1  0  0  0  0
  5 45  1  6  0  0  0
  6 46  1  0  0  0  0
  7  8  1  0  0  0  0
  7  9  1  0  0  0  0
  7 47  1  1  0  0  0
  8 39  1  0  0  0  0
  9 10  1  0  0  0  0
  9 11  1  0  0  0  0
  9 48  1  6  0  0  0
 11 12  1  0  0  0  0
 11 49  1  0  0  0  0
 11 50  1  0  0  0  0
 12 39  1  0  0  0  0
 13 14  1  0  0  0  0
 13 51  1  0  0  0  0
 14 15  1  0  0  0  0
 14 38  1  0  0  0  0
 14 52  1  6  0  0  0
 15 16  1  0  0  0  0
 15 17  1  0  0  0  0
 15 53  1  6  0  0  0
 16 54  1  0  0  0  0
 16 55  1  0  0  0  0
 16 56  1  0  0  0  0
 17 18  1  0  0  0  0
 17 24  1  0  0  0  0
 17 57  1  1  0  0  0
 18 19  1  0  0  0  0
 18 58  1  0  0  0  0
 18 59  1  0  0  0  0
 19 20  1  0  0  0  0
 19 60  1  0  0  0  0
 19 61  1  0  0  0  0
 20 21  1  0  0  0  0
 20 24  1  0  0  0  0
 20 62  1  6  0  0  0
 21 22  1  0  0  0  0
 21 63  1  0  0  0  0
 21 64  1  0  0  0  0
 22 23  1  0  0  0  0
 23 65  1  0  0  0  0
 23 66  1  0  0  0  0
 23 67  1  0  0  0  0
 24 25  2  0  0  0  0
 25 26  1  0  0  0  0
 25 68  1  0  0  0  0
 26 27  1  1  0  0  0
 26 28  1  0  0  0  0
 26 37  1  0  0  0  0
 27 69  1  0  0  0  0
 27 70  1  0  0  0  0
 27 71  1  0  0  0  0
 28 29  1  0  0  0  0
 28 32  1  0  0  0  0
 28 72  1  1  0  0  0
 29 30  1  0  0  0  0
 30 31  1  0  0  0  0
 30 73  1  0  0  0  0
 30 74  1  0  0  0  0
 31 32  1  0  0  0  0
 31 75  1  0  0  0  0
 31 76  1  0  0  0  0
 32 33  1  0  0  0  0
 32 77  1  1  0  0  0
 33 34  1  0  0  0  0
 33 37  2  0  0  0  0
 34 35  1  0  0  0  0
 34 36  1  0  0  0  0
 34 78  1  0  0  0  0
 35 79  1  0  0  0  0
 35 80  1  0  0  0  0
 35 81  1  0  0  0  0
 36 82  1  0  0  0  0
 36 83  1  0  0  0  0
 36 84  1  0  0  0  0
 37 38  1  0  0  0  0
 38 85  1  1  0  0  0
 39 40  1  0  0  0  0
 39 41  1  0  0  0  0
 40 86  1  0  0  0  0
 40 87  1  0  0  0  0
 40 88  1  0  0  0  0
 41 89  1  0  0  0  0
 41 90  1  0  0  0  0
 41 91  1  0  0  0  0
M  END
>  <COMPND>
    title: molecule 1

$$$$
3UJL_ligand0.pdb
 OpenBabel06042612053D

 38 38  0  0  1  0  0  0  0  0999 V2000
    7.5830  -15.2220   -5.3960 C   0  0  0  0  0  0  0  0  0  0  0  0
    8.2150  -13.8350   -5.2650 C   0  0  0  0  0  0  0  0  0  0  0  0
    8.9400  -13.1020   -6.2060 C   0  0  0  0  0  0  0  0  0  0  0  0
    9.0890  -13.6310   -7.5910 C   0  0  0  0  0  0  0  0  0  0  0  0
    9.7580  -13.0170   -8.5850 C   0  0  0  0  0  0  0  0  0  0  0  0
    9.6060  -11.7450   -5.8490 C   0  0  0  0  0  0  0  0  0  0  0  0
    9.9030  -13.6180   -9.9900 C   0  0  1  0  0  0  0  0  0  0  0  0
    9.2400  -14.8550  -10.1240 O   0  0  0  0  0  0  0  0  0  0  0  0
    9.2090  -12.6730  -10.9980 C   0  0  0  0  0  0  0  0  0  0  0  0
    9.9980  -11.9850  -11.7930 C   0  0  0  0  0  0  0  0  0  0  0  0
   11.3940  -12.0290  -11.3610 C   0  0  0  0  0  0  0  0  0  0  0  0
   12.1050  -11.3990  -12.0720 O   0  0  0  0  0  0  0  0  0  0  0  0
   12.1530  -12.8170  -10.3620 C   0  0  0  0  0  0  0  0  0  0  0  0
    7.2080  -15.8250   -4.3290 O   0  5  0  0  0  0  0  0  0  0  0  0
   11.3820  -14.0170  -10.1580 C   0  0  0  0  0  0  0  0  0  0  0  0
    7.4550  -15.8590   -6.4930 O   0  0  0  0  0  0  0  0  0  0  0  0
    7.7140  -12.4530  -11.1420 C   0  0  0  0  0  0  0  0  0  0  0  0
   12.2200  -15.1010   -9.5340 C   0  0  0  0  0  0  0  0  0  0  0  0
   11.4600  -14.6480  -11.6200 C   0  0  0  0  0  0  0  0  0  0  0  0
    8.1000  -13.3650   -4.3030 H   0  0  0  0  0  0  0  0  0  0  0  0
    8.6450  -14.5620   -7.8520 H   0  0  0  0  0  0  0  0  0  0  0  0
   10.2270  -12.0590   -8.4180 H   0  0  0  0  0  0  0  0  0  0  0  0
    9.2950  -10.9670   -6.5470 H   0  0  0  0  0  0  0  0  0  0  0  0
    9.3180  -11.4230   -4.8490 H   0  0  0  0  0  0  0  0  0  0  0  0
   10.6920  -11.8320   -5.8820 H   0  0  0  0  0  0  0  0  0  0  0  0
    9.4700  -15.4180   -9.3980 H   0  0  0  0  0  0  0  0  0  0  0  0
    9.6550  -11.2860  -12.5430 H   0  0  0  0  0  0  0  0  0  0  0  0
   12.2300  -12.2690   -9.4310 H   0  0  0  0  0  0  0  0  0  0  0  0
   13.1690  -13.0200  -10.7040 H   0  0  0  0  0  0  0  0  0  0  0  0
    7.3690  -12.9340  -12.0560 H   0  0  0  0  0  0  0  0  0  0  0  0
    7.1760  -12.9050  -10.3100 H   0  0  0  0  0  0  0  0  0  0  0  0
    7.4650  -11.3930  -11.1940 H   0  0  0  0  0  0  0  0  0  0  0  0
   13.1910  -15.2670  -10.0050 H   0  0  0  0  0  0  0  0  0  0  0  0
   12.4330  -14.8370   -8.4980 H   0  0  0  0  0  0  0  0  0  0  0  0
   11.6790  -16.0460   -9.4860 H   0  0  0  0  0  0  0  0  0  0  0  0
   12.4760  -14.6760  -12.0220 H   0  0  0  0  0  0  0  0  0  0  0  0
   11.1310  -15.6890  -11.6230 H   0  0  0  0  0  0  0  0  0  0  0  0
   10.8560  -14.2280  -12.4130 H   0  0  0  0  0  0  0  0  0  0  0  0
  1  2  1  0  0  0  0
  1 14  1  0  0  0  0
  1 16  2  0  0  0  0
  2  3  2  0  0  0  0
  2 20  1  0  0  0  0
  3  4  1  0  0  0  0
  3  6  1  0  0  0  0
  4  5  2  0  0  0  0
  4 21  1  0  0  0  0
  5 22  1  0  0  0  0
  6 23  1  0  0  0  0
  6 24  1  0  0  0  0
  6 25  1  0  0  0  0
  7  5  1  1  0  0  0
  7  8  1  0  0  0  0
  7  9  1  0  0  0  0
  7 15  1  0  0  0  0
  8 26  1  0  0  0  0
  9 10  2  0  0  0  0
  9 17  1  0  0  0  0
 10 11  1  0  0  0  0
 10 27  1  0  0  0  0
 11 12  2  0  0  0  0
 11 13  1  0  0  0  0
 13 15  1  0  0  0  0
 13 28  1  0  0  0  0
 13 29  1  0  0  0  0
 15 18  1  0  0  0  0
 15 19  1  0  0  0  0
 17 30  1  0  0  0  0
 17 31  1  0  0  0  0
 17 32  1  0  0  0  0
 18 33  1  0  0  0  0
 18 34  1  0  0  0  0
 18 35  1  0  0  0  0
 19 36  1  0  0  0  0
 19 37  1  0  0  0  0
 19 38  1  0  0  0  0
M  CHG  1  14  -1
M  END
>  <COMPND>
    title: molecule 1

$$$$
3UX0_ligand0.pdb
 OpenBabel06042612053D

 76 79  0  0  1  0  0  0  0  0999 V2000
   26.8490  -18.4510    0.7040 C   0  0  0  0  0  0  0  0  0  0  0  0
   26.0880  -18.3320   -0.6440 C   0  0  0  0  0  0  0  0  0  0  0  0
   26.7310  -17.1870   -1.4570 C   0  0  0  0  0  0  0  0  0  0  0  0
   24.5500  -18.1460   -0.4430 C   0  0  0  0  0  0  0  0  0  0  0  0
   23.5800  -18.9990   -0.9040 C   0  0  0  0  0  0  0  0  0  0  0  0
   24.0280  -17.0540    0.2980 C   0  0  0  0  0  0  0  0  0  0  0  0
   22.5610  -17.0100   -0.1190 C   0  0  0  0  0  0  0  0  0  0  0  0
   22.2960  -18.4870   -0.4350 C   0  0  1  0  0  0  0  0  0  0  0  0
   21.1260  -18.5290   -1.4760 C   0  0  0  0  0  0  0  0  0  0  0  0
   21.8400  -19.0350    0.8000 C   0  0  0  0  0  0  0  0  0  0  0  0
   22.2490  -19.9920    1.6700 C   0  0  0  0  0  0  0  0  0  0  0  0
   21.6090  -20.3020    2.9090 C   0  0  1  0  0  0  0  0  0  0  0  0
   20.1480  -20.7500    2.6770 C   0  0  0  0  0  0  0  0  0  0  0  0
   19.2740  -20.4050    3.7770 O   0  0  0  0  0  0  0  0  0  0  0  0
   22.3940  -21.4140    3.6210 C   0  0  0  0  0  0  0  0  0  0  0  0
   23.6950  -21.5320    2.8690 C   0  0  0  0  0  0  0  0  0  0  0  0
   23.4060  -20.8290    1.4940 C   0  0  1  0  0  0  0  0  0  0  0  0
   23.2960  -21.9190    0.3470 C   0  0  1  0  0  0  0  0  0  0  0  0
   21.8380  -22.3100   -0.1030 C   0  0  0  0  0  0  0  0  0  0  0  0
   24.1450  -21.5160   -0.8650 C   0  0  1  0  0  0  0  0  0  0  0  0
   24.2000  -22.6490   -1.7670 O   0  0  0  0  0  0  0  0  0  0  0  0
   23.6470  -20.2440   -1.6740 C   0  0  2  0  0  0  0  0  0  0  0  0
   24.5160  -20.1190   -2.8300 O   0  0  0  0  0  0  0  0  0  0  0  0
   23.8490  -20.1970   -4.1560 C   0  0  1  0  0  0  0  0  0  0  0  0
   23.0640  -18.9830   -4.4500 O   0  0  0  0  0  0  0  0  0  0  0  0
   23.7790  -17.7330   -4.7460 C   0  0  2  0  0  0  0  0  0  0  0  0
   23.1800  -17.1500   -6.0350 C   0  0  0  0  0  0  0  0  0  0  0  0
   21.8940  -16.6280   -5.7120 O   0  0  0  0  0  0  0  0  0  0  0  0
   25.3000  -17.9450   -4.8810 C   0  0  2  0  0  0  0  0  0  0  0  0
   25.9810  -16.6830   -5.2430 O   0  0  0  0  0  0  0  0  0  0  0  0
   25.5570  -19.1400   -5.8590 C   0  0  1  0  0  0  0  0  0  0  0  0
   26.9470  -19.3110   -6.1560 O   0  0  0  0  0  0  0  0  0  0  0  0
   24.8670  -20.4860   -5.3320 C   0  0  1  0  0  0  0  0  0  0  0  0
   25.8220  -21.5670   -5.0180 O   0  0  0  0  0  0  0  0  0  0  0  0
   26.4210  -19.2380    1.3230 H   0  0  0  0  0  0  0  0  0  0  0  0
   27.8980  -18.6890    0.5650 H   0  0  0  0  0  0  0  0  0  0  0  0
   26.7950  -17.5240    1.2760 H   0  0  0  0  0  0  0  0  0  0  0  0
   26.2430  -19.2570   -1.1980 H   0  0  0  0  0  0  0  0  0  0  0  0
   26.1160  -16.9000   -2.3060 H   0  0  0  0  0  0  0  0  0  0  0  0
   26.8540  -16.2910   -0.8490 H   0  0  0  0  0  0  0  0  0  0  0  0
   27.7160  -17.4710   -1.8290 H   0  0  0  0  0  0  0  0  0  0  0  0
   24.5320  -16.1180    0.0580 H   0  0  0  0  0  0  0  0  0  0  0  0
   24.1430  -17.2440    1.3620 H   0  0  0  0  0  0  0  0  0  0  0  0
   22.4620  -16.3980   -1.0180 H   0  0  0  0  0  0  0  0  0  0  0  0
   21.9250  -16.5670    0.6460 H   0  0  0  0  0  0  0  0  0  0  0  0
   20.2820  -17.9240   -1.1440 H   0  0  0  0  0  0  0  0  0  0  0  0
   21.4360  -18.1510   -2.4500 H   0  0  0  0  0  0  0  0  0  0  0  0
   20.7410  -19.5340   -1.6100 H   0  0  0  0  0  0  0  0  0  0  0  0
   20.9460  -18.5260    1.1320 H   0  0  0  0  0  0  0  0  0  0  0  0
   21.6340  -19.3920    3.5080 H   0  0  0  0  0  0  0  0  0  0  0  0
   20.0720  -21.8210    2.4940 H   0  0  0  0  0  0  0  0  0  0  0  0
   19.7080  -20.2730    1.8010 H   0  0  0  0  0  0  0  0  0  0  0  0
   18.4550  -20.8850    3.6990 H   0  0  0  0  0  0  0  0  0  0  0  0
   21.8700  -22.3690    3.6020 H   0  0  0  0  0  0  0  0  0  0  0  0
   22.5790  -21.1670    4.6560 H   0  0  0  0  0  0  0  0  0  0  0  0
   24.0120  -22.5590    2.7700 H   0  0  0  0  0  0  0  0  0  0  0  0
   24.4810  -20.9940    3.4020 H   0  0  0  0  0  0  0  0  0  0  0  0
   24.2730  -20.1970    1.3190 H   0  0  0  0  0  0  0  0  0  0  0  0
   23.7490  -22.8420    0.7060 H   0  0  0  0  0  0  0  0  0  0  0  0
   21.8370  -23.1050   -0.8480 H   0  0  0  0  0  0  0  0  0  0  0  0
   21.2690  -22.6790    0.7470 H   0  0  0  0  0  0  0  0  0  0  0  0
   21.2850  -21.4710   -0.5160 H   0  0  0  0  0  0  0  0  0  0  0  0
   25.1690  -21.3410   -0.5320 H   0  0  0  0  0  0  0  0  0  0  0  0
   24.7500  -22.4130   -2.4990 H   0  0  0  0  0  0  0  0  0  0  0  0
   22.6520  -20.4820   -2.0380 H   0  0  0  0  0  0  0  0  0  0  0  0
   23.1250  -21.0190   -4.0870 H   0  0  0  0  0  0  0  0  0  0  0  0
   23.6130  -17.0440   -3.9160 H   0  0  0  0  0  0  0  0  0  0  0  0
   23.0610  -17.9220   -6.7890 H   0  0  0  0  0  0  0  0  0  0  0  0
   23.7820  -16.3470   -6.4600 H   0  0  0  0  0  0  0  0  0  0  0  0
   22.0210  -15.8760   -5.1150 H   0  0  0  0  0  0  0  0  0  0  0  0
   25.7020  -18.2480   -3.9180 H   0  0  0  0  0  0  0  0  0  0  0  0
   26.9290  -16.8610   -5.2980 H   0  0  0  0  0  0  0  0  0  0  0  0
   25.0850  -18.8930   -6.8080 H   0  0  0  0  0  0  0  0  0  0  0  0
   27.0370  -20.0510   -6.7710 H   0  0  0  0  0  0  0  0  0  0  0  0
   24.2600  -20.8480   -6.1630 H   0  0  0  0  0  0  0  0  0  0  0  0
   26.4300  -21.2480   -4.3360 H   0  0  0  0  0  0  0  0  0  0  0  0
  1  2  1  0  0  0  0
  1 35  1  0  0  0  0
  1 36  1  0  0  0  0
  1 37  1  0  0  0  0
  2  3  1  0  0  0  0
  2  4  1  0  0  0  0
  2 38  1  0  0  0  0
  3 39  1  0  0  0  0
  3 40  1  0  0  0  0
  3 41  1  0  0  0  0
  4  5  2  0  0  0  0
  4  6  1  0  0  0  0
  5  8  1  0  0  0  0
  5 22  1  0  0  0  0
  6  7  1  0  0  0  0
  6 42  1  0  0  0  0
  6 43  1  0  0  0  0
  7  8  1  0  0  0  0
  7 44  1  0  0  0  0
  7 45  1  0  0  0  0
  8  9  1  6  0  0  0
  8 10  1  0  0  0  0
  9 46  1  0  0  0  0
  9 47  1  0  0  0  0
  9 48  1  0  0  0  0
 10 11  2  0  0  0  0
 10 49  1  0  0  0  0
 11 12  1  0  0  0  0
 11 17  1  0  0  0  0
 12 13  1  0  0  0  0
 12 15  1  0  0  0  0
 12 50  1  1  0  0  0
 13 14  1  0  0  0  0
 13 51  1  0  0  0  0
 13 52  1  0  0  0  0
 14 53  1  0  0  0  0
 15 16  1  0  0  0  0
 15 54  1  0  0  0  0
 15 55  1  0  0  0  0
 16 17  1  0  0  0  0
 16 56  1  0  0  0  0
 16 57  1  0  0  0  0
 17 18  1  0  0  0  0
 17 58  1  6  0  0  0
 18 19  1  0  0  0  0
 18 20  1  0  0  0  0
 18 59  1  1  0  0  0
 19 60  1  0  0  0  0
 19 61  1  0  0  0  0
 19 62  1  0  0  0  0
 20 21  1  0  0  0  0
 20 22  1  0  0  0  0
 20 63  1  1  0  0  0
 21 64  1  0  0  0  0
 22 23  1  0  0  0  0
 22 65  1  6  0  0  0
 23 24  1  0  0  0  0
 24 25  1  0  0  0  0
 24 33  1  0  0  0  0
 24 66  1  1  0  0  0
 25 26  1  0  0  0  0
 26 27  1  0  0  0  0
 26 29  1  0  0  0  0
 26 67  1  1  0  0  0
 27 28  1  0  0  0  0
 27 68  1  0  0  0  0
 27 69  1  0  0  0  0
 28 70  1  0  0  0  0
 29 30  1  0  0  0  0
 29 31  1  0  0  0  0
 29 71  1  1  0  0  0
 30 72  1  0  0  0  0
 31 32  1  0  0  0  0
 31 33  1  0  0  0  0
 31 73  1  6  0  0  0
 32 74  1  0  0  0  0
 33 34  1  0  0  0  0
 33 75  1  6  0  0  0
 34 76  1  0  0  0  0
M  END
>  <COMPND>
    title: molecule 1

$$$$
3ZVU_ligand0.pdb
 OpenBabel06042612053D

 38 38  0  0  1  0  0  0  0  0999 V2000
    3.1260   22.3370   37.1140 C   0  0  0  0  0  0  0  0  0  0  0  0
    1.6750   22.1910   37.0570 C   0  0  0  0  0  0  0  0  0  0  0  0
    0.9010   22.3270   35.9580 C   0  0  0  0  0  0  0  0  0  0  0  0
    1.4500   22.6030   34.6140 C   0  0  0  0  0  0  0  0  0  0  0  0
    0.7110   22.7790   33.5030 C   0  0  0  0  0  0  0  0  0  0  0  0
   -0.5980   22.1670   36.1110 C   0  0  0  0  0  0  0  0  0  0  0  0
    1.4330   23.0500   32.1630 C   0  0  1  0  0  0  0  0  0  0  0  0
    2.8870   23.1130   32.2890 O   0  0  0  0  0  0  0  0  0  0  0  0
    1.1840   21.8100   31.3240 C   0  0  0  0  0  0  0  0  0  0  0  0
    0.1000   21.7490   30.5360 C   0  0  0  0  0  0  0  0  0  0  0  0
   -0.8350   22.8790   30.4000 C   0  0  0  0  0  0  0  0  0  0  0  0
   -1.7730   22.7730   29.6110 O   0  0  0  0  0  0  0  0  0  0  0  0
   -0.6390   24.1710   31.2000 C   0  0  0  0  0  0  0  0  0  0  0  0
    3.6720   22.5260   38.2340 O   0  5  0  0  0  0  0  0  0  0  0  0
    0.8490   24.3340   31.5220 C   0  0  0  0  0  0  0  0  0  0  0  0
    3.8210   22.3170   36.0940 O   0  0  0  0  0  0  0  0  0  0  0  0
    2.0840   20.5940   31.5040 C   0  0  0  0  0  0  0  0  0  0  0  0
    1.6180   24.6900   30.2260 C   0  0  0  0  0  0  0  0  0  0  0  0
    0.9200   25.5240   32.5070 C   0  0  0  0  0  0  0  0  0  0  0  0
    1.1940   21.9640   37.9960 H   0  0  0  0  0  0  0  0  0  0  0  0
    2.4900   22.7000   34.4650 H   0  0  0  0  0  0  0  0  0  0  0  0
   -0.3660   22.7210   33.5160 H   0  0  0  0  0  0  0  0  0  0  0  0
   -0.9810   21.4290   35.4060 H   0  0  0  0  0  0  0  0  0  0  0  0
   -0.8750   21.8330   37.1120 H   0  0  0  0  0  0  0  0  0  0  0  0
   -1.0990   23.1170   35.9260 H   0  0  0  0  0  0  0  0  0  0  0  0
    3.2060   22.2790   32.6030 H   0  0  0  0  0  0  0  0  0  0  0  0
   -0.1160   20.8520   29.9740 H   0  0  0  0  0  0  0  0  0  0  0  0
   -1.2520   24.1240   32.0990 H   0  0  0  0  0  0  0  0  0  0  0  0
   -0.9870   25.0150   30.6220 H   0  0  0  0  0  0  0  0  0  0  0  0
    1.6940   19.7270   30.9690 H   0  0  0  0  0  0  0  0  0  0  0  0
    3.0810   20.7990   31.1140 H   0  0  0  0  0  0  0  0  0  0  0  0
    2.1720   20.3230   32.5520 H   0  0  0  0  0  0  0  0  0  0  0  0
    1.2120   25.5910   29.7660 H   0  0  0  0  0  0  0  0  0  0  0  0
    2.6700   24.8920   30.4250 H   0  0  0  0  0  0  0  0  0  0  0  0
    1.5810   23.9060   29.4710 H   0  0  0  0  0  0  0  0  0  0  0  0
    0.5750   26.4470   32.0370 H   0  0  0  0  0  0  0  0  0  0  0  0
    0.2930   25.3520   33.3810 H   0  0  0  0  0  0  0  0  0  0  0  0
    1.9390   25.6950   32.8540 H   0  0  0  0  0  0  0  0  0  0  0  0
  1  2  1  0  0  0  0
  1 14  1  0  0  0  0
  1 16  2  0  0  0  0
  2  3  2  0  0  0  0
  2 20  1  0  0  0  0
  3  4  1  0  0  0  0
  3  6  1  0  0  0  0
  4  5  2  0  0  0  0
  4 21  1  0  0  0  0
  5 22  1  0  0  0  0
  6 23  1  0  0  0  0
  6 24  1  0  0  0  0
  6 25  1  0  0  0  0
  7  5  1  1  0  0  0
  7  8  1  0  0  0  0
  7  9  1  0  0  0  0
  7 15  1  0  0  0  0
  8 26  1  0  0  0  0
  9 10  2  0  0  0  0
  9 17  1  0  0  0  0
 10 11  1  0  0  0  0
 10 27  1  0  0  0  0
 11 12  2  0  0  0  0
 11 13  1  0  0  0  0
 13 15  1  0  0  0  0
 13 28  1  0  0  0  0
 13 29  1  0  0  0  0
 15 18  1  0  0  0  0
 15 19  1  0  0  0  0
 17 30  1  0  0  0  0
 17 31  1  0  0  0  0
 17 32  1  0  0  0  0
 18 33  1  0  0  0  0
 18 34  1  0  0  0  0
 18 35  1  0  0  0  0
 19 36  1  0  0  0  0
 19 37  1  0  0  0  0
 19 38  1  0  0  0  0
M  CHG  1  14  -1
M  END
>  <COMPND>
    title: molecule 1

$$$$
4A69_ligand0.pdb
 OpenBabel06042612053D

 38 38  0  0  1  0  0  0  0  0999 V2000
   20.3100   52.4910   17.9610 O   0  5  0  0  0  0  0  0  0  0  0  0
   19.6570   52.0460   19.2510 P   0  0  2  0  0  0  0  0  0  0  0  0
   19.0330   50.6630   19.2340 O   0  0  0  0  0  0  0  0  0  0  0  0
   18.7730   53.0670   19.9070 O   0  0  0  0  0  0  0  0  0  0  0  0
   20.9310   51.8820   20.2400 O   0  0  0  0  0  0  0  0  0  0  0  0
   20.7580   51.4820   21.5980 C   0  0  1  0  0  0  0  0  0  0  0  0
   21.8420   50.4950   22.0290 C   0  0  2  0  0  0  0  0  0  0  0  0
   21.7480   49.3640   21.1790 O   0  0  0  0  0  0  0  0  0  0  0  0
   22.9900   48.8470   20.3080 P   0  3  0  0  0  0  0  0  0  0  0  0
   24.0380   48.4720   21.3410 O   0  5  0  0  0  0  0  0  0  0  0  0
   23.4390   50.0040   19.4740 O   0  0  0  0  0  0  0  0  0  0  0  0
   22.4500   47.6690   19.5490 O   0  0  0  0  0  0  0  0  0  0  0  0
   21.6570   50.0900   23.4930 C   0  0  1  0  0  0  0  0  0  0  0  0
   22.6890   49.1870   23.8950 O   0  0  0  0  0  0  0  0  0  0  0  0
   22.5220   47.6260   24.2040 P   0  0  1  0  0  0  0  0  0  0  0  0
   22.8100   47.5020   25.6850 O   0  5  0  0  0  0  0  0  0  0  0  0
   21.1080   47.2400   23.8190 O   0  0  0  0  0  0  0  0  0  0  0  0
   23.5700   47.0330   23.3090 O   0  0  0  0  0  0  0  0  0  0  0  0
   20.7670   52.7340   22.4620 C   0  0  2  0  0  0  0  0  0  0  0  0
   21.9810   53.4640   22.2100 O   0  0  0  0  0  0  0  0  0  0  0  0
   20.6340   52.3600   23.9320 C   0  0  2  0  0  0  0  0  0  0  0  0
   20.7840   53.5440   24.7010 O   0  0  0  0  0  0  0  0  0  0  0  0
   21.6870   51.3410   24.3840 C   0  0  1  0  0  0  0  0  0  0  0  0
   21.4160   50.9920   25.7360 O   0  0  0  0  0  0  0  0  0  0  0  0
   22.0580   51.7350   26.9980 P   0  3  0  0  0  0  0  0  0  0  0  0
   23.4890   52.0030   26.5980 O   0  5  0  0  0  0  0  0  0  0  0  0
   21.2910   53.0250   27.1800 O   0  0  0  0  0  0  0  0  0  0  0  0
   21.8130   50.7400   28.1120 O   0  0  0  0  0  0  0  0  0  0  0  0
   18.1850   50.7690   18.8300 H   0  0  0  0  0  0  0  0  0  0  0  0
   19.7890   50.9930   21.7070 H   0  0  0  0  0  0  0  0  0  0  0  0
   22.8240   50.9560   21.9120 H   0  0  0  0  0  0  0  0  0  0  0  0
   20.6780   49.6240   23.6080 H   0  0  0  0  0  0  0  0  0  0  0  0
   23.7270   47.6460   22.5850 H   0  0  0  0  0  0  0  0  0  0  0  0
   19.9360   53.3840   22.1880 H   0  0  0  0  0  0  0  0  0  0  0  0
   22.0000   54.1910   22.8160 H   0  0  0  0  0  0  0  0  0  0  0  0
   19.6380   51.9540   24.1170 H   0  0  0  0  0  0  0  0  0  0  0  0
   20.8610   53.3110   25.6260 H   0  0  0  0  0  0  0  0  0  0  0  0
   22.6790   51.7850   24.2950 H   0  0  0  0  0  0  0  0  0  0  0  0
  2  1  1  6  0  0  0
  2  3  1  0  0  0  0
  2  4  2  0  0  0  0
  2  5  1  0  0  0  0
  3 29  1  0  0  0  0
  5  6  1  0  0  0  0
  6  7  1  0  0  0  0
  6 19  1  0  0  0  0
  6 30  1  1  0  0  0
  7  8  1  0  0  0  0
  7 13  1  0  0  0  0
  7 31  1  6  0  0  0
  8  9  1  0  0  0  0
  9 10  1  0  0  0  0
  9 11  2  0  0  0  0
  9 12  2  0  0  0  0
 13 14  1  0  0  0  0
 13 23  1  0  0  0  0
 13 32  1  1  0  0  0
 14 15  1  0  0  0  0
 15 16  1  1  0  0  0
 15 17  2  0  0  0  0
 15 18  1  0  0  0  0
 18 33  1  0  0  0  0
 19 20  1  0  0  0  0
 19 21  1  0  0  0  0
 19 34  1  6  0  0  0
 20 35  1  0  0  0  0
 21 22  1  0  0  0  0
 21 23  1  0  0  0  0
 21 36  1  1  0  0  0
 22 37  1  0  0  0  0
 23 24  1  0  0  0  0
 23 38  1  6  0  0  0
 24 25  1  0  0  0  0
 25 26  1  0  0  0  0
 25 27  2  0  0  0  0
 25 28  2  0  0  0  0
M  CHG  6   1  -1   9   1  10  -1  16  -1  25   1  26  -1
M  END
>  <COMPND>
    title: molecule 1

$$$$
4DRH_ligand0.pdb
 OpenBabel06042612053D

144147  0  0  1  0  0  0  0  0999 V2000
   -8.4830   19.4800   -3.5420 C   0  0  0  0  0  0  0  0  0  0  0  0
   -7.2470   19.0030   -2.9400 O   0  0  0  0  0  0  0  0  0  0  0  0
   -8.4630   20.4750   -4.2500 O   0  0  0  0  0  0  0  0  0  0  0  0
   -9.7510   18.7060   -3.2840 C   0  0  2  0  0  0  0  0  0  0  0  0
  -10.8930   19.6030   -2.7920 C   0  0  0  0  0  0  0  0  0  0  0  0
  -10.6630   20.1210   -1.3640 C   0  0  0  0  0  0  0  0  0  0  0  0
  -10.3890   18.9720   -0.3860 C   0  0  0  0  0  0  0  0  0  0  0  0
   -9.2250   18.1170   -0.9080 C   0  0  0  0  0  0  0  0  0  0  0  0
   -9.5220   17.6300   -2.2860 N   0  0  0  0  0  0  0  0  0  0  0  0
   -9.5690   16.3520   -2.7000 C   0  0  0  0  0  0  0  0  0  0  0  0
   -9.7460   16.0280   -3.8540 O   0  0  0  0  0  0  0  0  0  0  0  0
   -9.4190   15.2560   -1.7460 C   0  0  0  0  0  0  0  0  0  0  0  0
  -10.4370   14.7630   -1.3140 O   0  0  0  0  0  0  0  0  0  0  0  0
   -8.0610   14.7130   -1.3170 C   0  0  1  0  0  0  0  0  0  0  0  0
   -7.5650   15.6430   -0.3440 O   0  0  0  0  0  0  0  0  0  0  0  0
   -8.2440   13.4050   -0.7640 O   0  0  0  0  0  0  0  0  0  0  0  0
   -7.0490   14.5840   -2.4690 C   0  0  1  0  0  0  0  0  0  0  0  0
   -5.6640   14.2450   -1.9000 C   0  0  0  0  0  0  0  0  0  0  0  0
   -5.2250   15.2440   -0.8250 C   0  0  0  0  0  0  0  0  0  0  0  0
   -6.2890   15.4050    0.2610 C   0  0  1  0  0  0  0  0  0  0  0  0
   -6.0720   16.6430    1.1220 C   0  0  0  0  0  0  0  0  0  0  0  0
   -4.8830   16.4950    2.0630 C   0  0  2  0  0  0  0  0  0  0  0  0
   -5.2160   15.6030    3.1330 O   0  0  0  0  0  0  0  0  0  0  0  0
   -4.5060   17.8880    2.5110 C   0  0  0  0  0  0  0  0  0  0  0  0
   -3.3540   18.4190    2.0000 C   0  0  0  0  0  0  0  0  0  0  0  0
   -2.8420   19.7610    2.2990 C   0  0  0  0  0  0  0  0  0  0  0  0
   -1.6690   20.1810    1.8060 C   0  0  0  0  0  0  0  0  0  0  0  0
   -1.2100   21.5390    2.1160 C   0  0  0  0  0  0  0  0  0  0  0  0
   -0.1600   22.0930    1.4990 C   0  0  0  0  0  0  0  0  0  0  0  0
    0.3010   23.5050    1.8020 C   0  0  2  0  0  0  0  0  0  0  0  0
    0.1750   24.4460    0.5860 C   0  0  0  0  0  0  0  0  0  0  0  0
   -1.2560   24.6020    0.0460 C   0  0  2  0  0  0  0  0  0  0  0  0
   -1.1600   25.0640   -1.3980 C   0  0  0  0  0  0  0  0  0  0  0  0
   -1.1440   26.2580   -1.6390 O   0  0  0  0  0  0  0  0  0  0  0  0
   -1.0050   24.0650   -2.5320 C   0  0  2  0  0  0  0  0  0  0  0  0
   -0.4390   24.6500   -3.7040 O   0  0  0  0  0  0  0  0  0  0  0  0
   -2.3040   23.4310   -2.9920 C   0  0  2  0  0  0  0  0  0  0  0  0
   -3.2610   24.4760   -3.2190 O   0  0  0  0  0  0  0  0  0  0  0  0
   -2.7670   22.3780   -2.0130 C   0  0  0  0  0  0  0  0  0  0  0  0
   -3.9430   22.5530   -1.3630 C   0  0  0  0  0  0  0  0  0  0  0  0
   -4.5060   21.5640   -0.3540 C   0  0  2  0  0  0  0  0  0  0  0  0
   -5.6050   20.7980   -1.0610 C   0  0  0  0  0  0  0  0  0  0  0  0
   -6.7760   21.0950   -0.9360 O   0  0  0  0  0  0  0  0  0  0  0  0
   -5.2240   19.6750   -1.9910 C   0  0  0  0  0  0  0  0  0  0  0  0
   -6.0680   19.7080   -3.2740 C   0  0  1  0  0  0  0  0  0  0  0  0
   -5.4190   19.0020   -4.4750 C   0  0  1  0  0  0  0  0  0  0  0  0
   -4.2410   19.7740   -5.0490 C   0  0  0  0  0  0  0  0  0  0  0  0
   -4.5620   21.1590   -5.6270 C   0  0  1  0  0  0  0  0  0  0  0  0
   -3.2760   21.6720   -6.3080 C   0  0  0  0  0  0  0  0  0  0  0  0
   -3.4840   23.0710   -6.9000 C   0  0  1  0  0  0  0  0  0  0  0  0
   -2.2970   23.5090   -7.5620 O   0  0  0  0  0  0  0  0  0  0  0  0
   -4.5950   22.9950   -7.9470 C   0  0  2  0  0  0  0  0  0  0  0  0
   -4.8120   24.2860   -8.5170 O   0  0  0  0  0  0  0  0  0  0  0  0
   -5.9160   22.4390   -7.3910 C   0  0  0  0  0  0  0  0  0  0  0  0
   -5.7360   21.1360   -6.6160 C   0  0  0  0  0  0  0  0  0  0  0  0
   -7.5120   13.5340   -3.4920 C   0  0  0  0  0  0  0  0  0  0  0  0
   -5.4530   18.6350    3.4550 C   0  0  0  0  0  0  0  0  0  0  0  0
    1.7740   23.4680    2.2000 C   0  0  0  0  0  0  0  0  0  0  0  0
   -2.0890   25.5630    0.9020 C   0  0  0  0  0  0  0  0  0  0  0  0
   -1.8850   21.1740   -1.7520 C   0  0  0  0  0  0  0  0  0  0  0  0
   -4.9810   22.2990    0.8980 C   0  0  0  0  0  0  0  0  0  0  0  0
   -4.9830   17.5760   -4.1260 C   0  0  0  0  0  0  0  0  0  0  0  0
   -4.0410   15.1670    3.8120 C   0  0  0  0  0  0  0  0  0  0  0  0
    0.9600   24.9430   -3.6410 C   0  0  0  0  0  0  0  0  0  0  0  0
   -1.3550   24.2120   -6.7590 C   0  0  0  0  0  0  0  0  0  0  0  0
  -10.0840   18.3290   -4.2520 H   0  0  0  0  0  0  0  0  0  0  0  0
  -11.8050   19.0100   -2.8080 H   0  0  0  0  0  0  0  0  0  0  0  0
  -11.0670   20.4370   -3.4700 H   0  0  0  0  0  0  0  0  0  0  0  0
  -11.5090   20.7040   -1.0220 H   0  0  0  0  0  0  0  0  0  0  0  0
   -9.8140   20.8030   -1.3530 H   0  0  0  0  0  0  0  0  0  0  0  0
  -11.2840   18.3560   -0.2890 H   0  0  0  0  0  0  0  0  0  0  0  0
  -10.1650   19.3510    0.6100 H   0  0  0  0  0  0  0  0  0  0  0  0
   -9.1340   17.3180   -0.1850 H   0  0  0  0  0  0  0  0  0  0  0  0
   -8.2930   18.6710   -0.8320 H   0  0  0  0  0  0  0  0  0  0  0  0
   -8.7720   13.5010    0.0220 H   0  0  0  0  0  0  0  0  0  0  0  0
   -6.9960   15.5450   -2.9640 H   0  0  0  0  0  0  0  0  0  0  0  0
   -4.9270   14.2310   -2.7040 H   0  0  0  0  0  0  0  0  0  0  0  0
   -5.6690   13.2400   -1.4760 H   0  0  0  0  0  0  0  0  0  0  0  0
   -5.0030   16.2060   -1.2880 H   0  0  0  0  0  0  0  0  0  0  0  0
   -4.3200   14.8740   -0.3500 H   0  0  0  0  0  0  0  0  0  0  0  0
   -6.3490   14.5080    0.8760 H   0  0  0  0  0  0  0  0  0  0  0  0
   -6.9710   16.8310    1.7110 H   0  0  0  0  0  0  0  0  0  0  0  0
   -5.9510   17.5100    0.4710 H   0  0  0  0  0  0  0  0  0  0  0  0
   -4.0510   16.0700    1.5010 H   0  0  0  0  0  0  0  0  0  0  0  0
   -2.7700   17.8170    1.3240 H   0  0  0  0  0  0  0  0  0  0  0  0
   -3.4060   20.4420    2.9150 H   0  0  0  0  0  0  0  0  0  0  0  0
   -1.0720   19.5350    1.1790 H   0  0  0  0  0  0  0  0  0  0  0  0
   -1.7550   22.1190    2.8370 H   0  0  0  0  0  0  0  0  0  0  0  0
    0.3940   21.5380    0.7580 H   0  0  0  0  0  0  0  0  0  0  0  0
   -0.2760   23.9110    2.6330 H   0  0  0  0  0  0  0  0  0  0  0  0
    0.8350   24.0650   -0.1960 H   0  0  0  0  0  0  0  0  0  0  0  0
    0.5720   25.4300    0.8420 H   0  0  0  0  0  0  0  0  0  0  0  0
   -1.7460   23.6310    0.0440 H   0  0  0  0  0  0  0  0  0  0  0  0
   -0.3170   23.2850   -2.2080 H   0  0  0  0  0  0  0  0  0  0  0  0
   -2.1350   22.9300   -3.9390 H   0  0  0  0  0  0  0  0  0  0  0  0
   -4.0870   24.0860   -3.4790 H   0  0  0  0  0  0  0  0  0  0  0  0
   -4.5680   23.4190   -1.5240 H   0  0  0  0  0  0  0  0  0  0  0  0
   -3.7630   20.8460   -0.0260 H   0  0  0  0  0  0  0  0  0  0  0  0
   -5.3190   18.7190   -1.4770 H   0  0  0  0  0  0  0  0  0  0  0  0
   -4.1750   19.7870   -2.2450 H   0  0  0  0  0  0  0  0  0  0  0  0
   -6.2720   20.7480   -3.5290 H   0  0  0  0  0  0  0  0  0  0  0  0
   -6.1690   18.9110   -5.2560 H   0  0  0  0  0  0  0  0  0  0  0  0
   -3.8090   19.1680   -5.8460 H   0  0  0  0  0  0  0  0  0  0  0  0
   -3.4520   19.8660   -4.3020 H   0  0  0  0  0  0  0  0  0  0  0  0
   -4.8050   21.8310   -4.8080 H   0  0  0  0  0  0  0  0  0  0  0  0
   -2.9860   20.9890   -7.1090 H   0  0  0  0  0  0  0  0  0  0  0  0
   -2.4420   21.6650   -5.6120 H   0  0  0  0  0  0  0  0  0  0  0  0
   -3.7700   23.7780   -6.1180 H   0  0  0  0  0  0  0  0  0  0  0  0
   -4.2670   22.3410   -8.7570 H   0  0  0  0  0  0  0  0  0  0  0  0
   -5.0130   24.8980   -7.8210 H   0  0  0  0  0  0  0  0  0  0  0  0
   -6.6490   22.3100   -8.1880 H   0  0  0  0  0  0  0  0  0  0  0  0
   -6.3250   23.1830   -6.7100 H   0  0  0  0  0  0  0  0  0  0  0  0
   -6.6700   20.9120   -6.1040 H   0  0  0  0  0  0  0  0  0  0  0  0
   -5.5800   20.3290   -7.3340 H   0  0  0  0  0  0  0  0  0  0  0  0
   -6.8260   13.5080   -4.3390 H   0  0  0  0  0  0  0  0  0  0  0  0
   -7.5320   12.5270   -3.0740 H   0  0  0  0  0  0  0  0  0  0  0  0
   -8.5000   13.7400   -3.8990 H   0  0  0  0  0  0  0  0  0  0  0  0
   -5.1790   19.6670    3.6520 H   0  0  0  0  0  0  0  0  0  0  0  0
   -6.4630   18.6350    3.0510 H   0  0  0  0  0  0  0  0  0  0  0  0
   -5.4870   18.1150    4.4130 H   0  0  0  0  0  0  0  0  0  0  0  0
    2.1630   24.4680    2.3840 H   0  0  0  0  0  0  0  0  0  0  0  0
    1.9190   22.8860    3.1110 H   0  0  0  0  0  0  0  0  0  0  0  0
    2.3880   23.0210    1.4190 H   0  0  0  0  0  0  0  0  0  0  0  0
   -3.1050   25.6590    0.5180 H   0  0  0  0  0  0  0  0  0  0  0  0
   -2.1570   25.1860    1.9170 H   0  0  0  0  0  0  0  0  0  0  0  0
   -1.6490   26.5600    0.9520 H   0  0  0  0  0  0  0  0  0  0  0  0
   -2.3570   20.3110   -1.2940 H   0  0  0  0  0  0  0  0  0  0  0  0
   -1.4780   20.8220   -2.7000 H   0  0  0  0  0  0  0  0  0  0  0  0
   -1.0430   21.4590   -1.1250 H   0  0  0  0  0  0  0  0  0  0  0  0
   -5.3690   21.6000    1.6380 H   0  0  0  0  0  0  0  0  0  0  0  0
   -4.1560   22.8370    1.3670 H   0  0  0  0  0  0  0  0  0  0  0  0
   -5.7650   23.0260    0.6780 H   0  0  0  0  0  0  0  0  0  0  0  0
   -4.5610   17.0630   -4.9900 H   0  0  0  0  0  0  0  0  0  0  0  0
   -4.2380   17.5600   -3.3340 H   0  0  0  0  0  0  0  0  0  0  0  0
   -5.8300   16.9930   -3.7970 H   0  0  0  0  0  0  0  0  0  0  0  0
   -4.3420   14.4700    4.5920 H   0  0  0  0  0  0  0  0  0  0  0  0
   -3.3570   14.6570    3.1350 H   0  0  0  0  0  0  0  0  0  0  0  0
   -3.5180   15.9960    4.2900 H   0  0  0  0  0  0  0  0  0  0  0  0
    1.2420   25.5180   -4.5220 H   0  0  0  0  0  0  0  0  0  0  0  0
    1.2380   25.5230   -2.7610 H   0  0  0  0  0  0  0  0  0  0  0  0
    1.5410   24.0240   -3.6600 H   0  0  0  0  0  0  0  0  0  0  0  0
   -0.5240   24.5530   -7.3760 H   0  0  0  0  0  0  0  0  0  0  0  0
   -1.8120   25.0830   -6.2920 H   0  0  0  0  0  0  0  0  0  0  0  0
   -0.9520   23.5620   -5.9840 H   0  0  0  0  0  0  0  0  0  0  0  0
  1  2  1  0  0  0  0
  1  3  2  0  0  0  0
  1  4  1  0  0  0  0
  2 45  1  0  0  0  0
  4  5  1  0  0  0  0
  4  9  1  0  0  0  0
  4 66  1  6  0  0  0
  5  6  1  0  0  0  0
  5 67  1  0  0  0  0
  5 68  1  0  0  0  0
  6  7  1  0  0  0  0
  6 69  1  0  0  0  0
  6 70  1  0  0  0  0
  7  8  1  0  0  0  0
  7 71  1  0  0  0  0
  7 72  1  0  0  0  0
  8  9  1  0  0  0  0
  8 73  1  0  0  0  0
  8 74  1  0  0  0  0
  9 10  1  0  0  0  0
 10 11  2  0  0  0  0
 10 12  1  0  0  0  0
 12 13  2  0  0  0  0
 12 14  1  0  0  0  0
 14 15  1  0  0  0  0
 14 16  1  1  0  0  0
 14 17  1  0  0  0  0
 15 20  1  0  0  0  0
 16 75  1  0  0  0  0
 17 18  1  0  0  0  0
 17 56  1  0  0  0  0
 17 76  1  6  0  0  0
 18 19  1  0  0  0  0
 18 77  1  0  0  0  0
 18 78  1  0  0  0  0
 19 20  1  0  0  0  0
 19 79  1  0  0  0  0
 19 80  1  0  0  0  0
 20 21  1  0  0  0  0
 20 81  1  1  0  0  0
 21 22  1  0  0  0  0
 21 82  1  0  0  0  0
 21 83  1  0  0  0  0
 22 23  1  0  0  0  0
 22 24  1  0  0  0  0
 22 84  1  6  0  0  0
 23 63  1  0  0  0  0
 24 25  2  0  0  0  0
 24 57  1  0  0  0  0
 25 26  1  0  0  0  0
 25 85  1  0  0  0  0
 26 27  2  0  0  0  0
 26 86  1  0  0  0  0
 27 28  1  0  0  0  0
 27 87  1  0  0  0  0
 28 29  2  0  0  0  0
 28 88  1  0  0  0  0
 29 30  1  0  0  0  0
 29 89  1  0  0  0  0
 30 31  1  0  0  0  0
 30 58  1  0  0  0  0
 30 90  1  1  0  0  0
 31 32  1  0  0  0  0
 31 91  1  0  0  0  0
 31 92  1  0  0  0  0
 32 33  1  0  0  0  0
 32 59  1  0  0  0  0
 32 93  1  1  0  0  0
 33 34  2  0  0  0  0
 33 35  1  0  0  0  0
 35 36  1  0  0  0  0
 35 37  1  0  0  0  0
 35 94  1  1  0  0  0
 36 64  1  0  0  0  0
 37 38  1  0  0  0  0
 37 39  1  0  0  0  0
 37 95  1  6  0  0  0
 38 96  1  0  0  0  0
 39 40  2  0  0  0  0
 39 60  1  0  0  0  0
 40 41  1  0  0  0  0
 40 97  1  0  0  0  0
 41 42  1  0  0  0  0
 41 61  1  0  0  0  0
 41 98  1  1  0  0  0
 42 43  2  0  0  0  0
 42 44  1  0  0  0  0
 44 45  1  0  0  0  0
 44 99  1  0  0  0  0
 44100  1  0  0  0  0
 45 46  1  0  0  0  0
 45101  1  6  0  0  0
 46 47  1  0  0  0  0
 46 62  1  0  0  0  0
 46102  1  6  0  0  0
 47 48  1  0  0  0  0
 47103  1  0  0  0  0
 47104  1  0  0  0  0
 48 49  1  0  0  0  0
 48 55  1  0  0  0  0
 48105  1  1  0  0  0
 49 50  1  0  0  0  0
 49106  1  0  0  0  0
 49107  1  0  0  0  0
 50 51  1  0  0  0  0
 50 52  1  0  0  0  0
 50108  1  1  0  0  0
 51 65  1  0  0  0  0
 52 53  1  0  0  0  0
 52 54  1  0  0  0  0
 52109  1  6  0  0  0
 53110  1  0  0  0  0
 54 55  1  0  0  0  0
 54111  1  0  0  0  0
 54112  1  0  0  0  0
 55113  1  0  0  0  0
 55114  1  0  0  0  0
 56115  1  0  0  0  0
 56116  1  0  0  0  0
 56117  1  0  0  0  0
 57118  1  0  0  0  0
 57119  1  0  0  0  0
 57120  1  0  0  0  0
 58121  1  0  0  0  0
 58122  1  0  0  0  0
 58123  1  0  0  0  0
 59124  1  0  0  0  0
 59125  1  0  0  0  0
 59126  1  0  0  0  0
 60127  1  0  0  0  0
 60128  1  0  0  0  0
 60129  1  0  0  0  0
 61130  1  0  0  0  0
 61131  1  0  0  0  0
 61132  1  0  0  0  0
 62133  1  0  0  0  0
 62134  1  0  0  0  0
 62135  1  0  0  0  0
 63136  1  0  0  0  0
 63137  1  0  0  0  0
 63138  1  0  0  0  0
 64139  1  0  0  0  0
 64140  1  0  0  0  0
 64141  1  0  0  0  0
 65142  1  0  0  0  0
 65143  1  0  0  0  0
 65144  1  0  0  0  0
M  END
>  <COMPND>
    title: molecule 1

$$$$
4DRI_ligand0.pdb
 OpenBabel06042612053D

144147  0  0  1  0  0  0  0  0999 V2000
   36.0000   53.5320   34.2020 C   0  0  0  0  0  0  0  0  0  0  0  0
   36.3490   52.4930   35.0800 O   0  0  0  0  0  0  0  0  0  0  0  0
   34.8740   53.8900   34.0440 O   0  0  0  0  0  0  0  0  0  0  0  0
   37.1780   54.1860   33.5150 C   0  0  2  0  0  0  0  0  0  0  0  0
   36.9380   54.1750   31.9920 C   0  0  0  0  0  0  0  0  0  0  0  0
   37.1580   52.8120   31.3730 C   0  0  0  0  0  0  0  0  0  0  0  0
   38.5600   52.3690   31.6550 C   0  0  0  0  0  0  0  0  0  0  0  0
   38.7880   52.3010   33.1880 C   0  0  0  0  0  0  0  0  0  0  0  0
   38.4970   53.6030   33.8010 N   0  0  0  0  0  0  0  0  0  0  0  0
   39.3400   54.3580   34.5460 C   0  0  0  0  0  0  0  0  0  0  0  0
   39.0950   55.4260   35.0510 O   0  0  0  0  0  0  0  0  0  0  0  0
   40.6910   53.8350   34.7780 C   0  0  0  0  0  0  0  0  0  0  0  0
   41.5620   54.0930   33.9350 O   0  0  0  0  0  0  0  0  0  0  0  0
   41.0170   53.0020   36.0110 C   0  0  1  0  0  0  0  0  0  0  0  0
   40.4770   51.7210   35.7100 O   0  0  0  0  0  0  0  0  0  0  0  0
   42.4330   52.9190   36.1340 O   0  0  0  0  0  0  0  0  0  0  0  0
   40.3840   53.5570   37.3060 C   0  0  1  0  0  0  0  0  0  0  0  0
   40.5460   52.5400   38.4430 C   0  0  0  0  0  0  0  0  0  0  0  0
   40.0560   51.1500   38.0160 C   0  0  0  0  0  0  0  0  0  0  0  0
   40.6810   50.7150   36.6960 C   0  0  1  0  0  0  0  0  0  0  0  0
   39.9130   49.5350   36.1140 C   0  0  0  0  0  0  0  0  0  0  0  0
   40.0180   48.2270   36.8860 C   0  0  2  0  0  0  0  0  0  0  0  0
   41.3950   47.9000   37.0020 O   0  0  0  0  0  0  0  0  0  0  0  0
   39.1950   47.1220   36.2020 C   0  0  0  0  0  0  0  0  0  0  0  0
   38.1340   46.6070   36.8520 C   0  0  0  0  0  0  0  0  0  0  0  0
   37.2040   45.6000   36.2910 C   0  0  0  0  0  0  0  0  0  0  0  0
   36.1820   45.1400   37.0200 C   0  0  0  0  0  0  0  0  0  0  0  0
   35.2390   44.2230   36.3710 C   0  0  0  0  0  0  0  0  0  0  0  0
   34.1080   43.8840   36.9820 C   0  0  0  0  0  0  0  0  0  0  0  0
   33.0580   42.9930   36.3650 C   0  0  2  0  0  0  0  0  0  0  0  0
   31.7270   43.7700   36.2730 C   0  0  0  0  0  0  0  0  0  0  0  0
   31.7510   45.0460   35.4390 C   0  0  2  0  0  0  0  0  0  0  0  0
   30.5690   45.8800   35.8620 C   0  0  0  0  0  0  0  0  0  0  0  0
   29.5000   45.7890   35.2890 O   0  0  0  0  0  0  0  0  0  0  0  0
   30.7300   46.8100   37.0220 C   0  0  2  0  0  0  0  0  0  0  0  0
   29.4680   47.2050   37.5190 O   0  0  0  0  0  0  0  0  0  0  0  0
   31.4030   48.1280   36.6480 C   0  0  2  0  0  0  0  0  0  0  0  0
   30.7440   48.6200   35.4780 O   0  0  0  0  0  0  0  0  0  0  0  0
   32.8830   48.0140   36.4890 C   0  0  0  0  0  0  0  0  0  0  0  0
   33.4760   48.1680   35.3000 C   0  0  0  0  0  0  0  0  0  0  0  0
   34.9450   48.1330   34.9620 C   0  0  2  0  0  0  0  0  0  0  0  0
   35.3480   49.5740   34.7390 C   0  0  0  0  0  0  0  0  0  0  0  0
   35.4410   50.0640   33.6200 O   0  0  0  0  0  0  0  0  0  0  0  0
   35.6550   50.4350   35.9630 C   0  0  0  0  0  0  0  0  0  0  0  0
   35.2710   51.9010   35.8170 C   0  0  1  0  0  0  0  0  0  0  0  0
   35.1280   52.6070   37.1410 C   0  0  1  0  0  0  0  0  0  0  0  0
   33.9490   52.1370   37.9990 C   0  0  0  0  0  0  0  0  0  0  0  0
   32.5550   52.2660   37.3460 C   0  0  1  0  0  0  0  0  0  0  0  0
   31.5180   51.8580   38.4080 C   0  0  0  0  0  0  0  0  0  0  0  0
   30.0920   51.9500   37.8720 C   0  0  1  0  0  0  0  0  0  0  0  0
   29.1460   51.6310   38.9240 O   0  0  0  0  0  0  0  0  0  0  0  0
   29.8000   53.3680   37.3900 C   0  0  2  0  0  0  0  0  0  0  0  0
   28.4670   53.4660   36.8350 O   0  0  0  0  0  0  0  0  0  0  0  0
   30.8240   53.7720   36.3180 C   0  0  0  0  0  0  0  0  0  0  0  0
   32.2460   53.6820   36.8550 C   0  0  0  0  0  0  0  0  0  0  0  0
   40.9530   54.9120   37.7020 C   0  0  0  0  0  0  0  0  0  0  0  0
   39.6720   46.5600   34.8750 C   0  0  0  0  0  0  0  0  0  0  0  0
   32.8570   41.7440   37.2220 C   0  0  0  0  0  0  0  0  0  0  0  0
   31.7690   44.7630   33.9270 C   0  0  0  0  0  0  0  0  0  0  0  0
   33.6540   47.7540   37.7570 C   0  0  0  0  0  0  0  0  0  0  0  0
   35.1970   47.2650   33.7130 C   0  0  0  0  0  0  0  0  0  0  0  0
   36.3820   52.4840   38.0380 C   0  0  0  0  0  0  0  0  0  0  0  0
   41.6220   46.7820   37.8820 C   0  0  0  0  0  0  0  0  0  0  0  0
   28.9280   46.2970   38.4700 C   0  0  0  0  0  0  0  0  0  0  0  0
   29.1320   50.2310   39.2810 C   0  0  0  0  0  0  0  0  0  0  0  0
   37.1200   55.2420   33.7820 H   0  0  0  0  0  0  0  0  0  0  0  0
   37.6290   54.8850   31.5390 H   0  0  0  0  0  0  0  0  0  0  0  0
   35.9440   54.5440   31.7390 H   0  0  0  0  0  0  0  0  0  0  0  0
   36.9820   52.8440   30.3040 H   0  0  0  0  0  0  0  0  0  0  0  0
   36.4490   52.0870   31.7710 H   0  0  0  0  0  0  0  0  0  0  0  0
   39.2740   53.0570   31.1990 H   0  0  0  0  0  0  0  0  0  0  0  0
   38.7450   51.3930   31.2070 H   0  0  0  0  0  0  0  0  0  0  0  0
   39.8010   51.9380   33.3390 H   0  0  0  0  0  0  0  0  0  0  0  0
   38.1490   51.5320   33.6210 H   0  0  0  0  0  0  0  0  0  0  0  0
   42.7690   52.5350   35.3290 H   0  0  0  0  0  0  0  0  0  0  0  0
   39.3140   53.6730   37.1440 H   0  0  0  0  0  0  0  0  0  0  0  0
   39.9970   52.8690   39.3260 H   0  0  0  0  0  0  0  0  0  0  0  0
   41.5920   52.4770   38.7420 H   0  0  0  0  0  0  0  0  0  0  0  0
   38.9710   51.1730   37.9240 H   0  0  0  0  0  0  0  0  0  0  0  0
   40.2840   50.4290   38.8010 H   0  0  0  0  0  0  0  0  0  0  0  0
   41.7420   50.4880   36.8050 H   0  0  0  0  0  0  0  0  0  0  0  0
   40.2670   49.3800   35.0960 H   0  0  0  0  0  0  0  0  0  0  0  0
   38.8620   49.8020   36.0070 H   0  0  0  0  0  0  0  0  0  0  0  0
   39.6220   48.3950   37.8890 H   0  0  0  0  0  0  0  0  0  0  0  0
   37.8820   47.0180   37.8180 H   0  0  0  0  0  0  0  0  0  0  0  0
   37.3040   45.2610   35.2730 H   0  0  0  0  0  0  0  0  0  0  0  0
   36.0270   45.4690   38.0380 H   0  0  0  0  0  0  0  0  0  0  0  0
   35.4380   43.8520   35.3800 H   0  0  0  0  0  0  0  0  0  0  0  0
   33.8970   44.2670   37.9650 H   0  0  0  0  0  0  0  0  0  0  0  0
   33.3730   42.6920   35.3660 H   0  0  0  0  0  0  0  0  0  0  0  0
   31.3870   43.9750   37.2870 H   0  0  0  0  0  0  0  0  0  0  0  0
   30.9680   43.1030   35.8600 H   0  0  0  0  0  0  0  0  0  0  0  0
   32.6490   45.6060   35.6850 H   0  0  0  0  0  0  0  0  0  0  0  0
   31.2970   46.3260   37.8130 H   0  0  0  0  0  0  0  0  0  0  0  0
   31.2270   48.8610   37.4360 H   0  0  0  0  0  0  0  0  0  0  0  0
   31.1480   49.4390   35.2210 H   0  0  0  0  0  0  0  0  0  0  0  0
   32.8750   48.3540   34.4220 H   0  0  0  0  0  0  0  0  0  0  0  0
   35.5290   47.7370   35.7880 H   0  0  0  0  0  0  0  0  0  0  0  0
   36.7110   50.3370   36.2130 H   0  0  0  0  0  0  0  0  0  0  0  0
   35.1100   49.9940   36.7930 H   0  0  0  0  0  0  0  0  0  0  0  0
   34.3310   51.9540   35.2670 H   0  0  0  0  0  0  0  0  0  0  0  0
   34.9860   53.6670   36.9380 H   0  0  0  0  0  0  0  0  0  0  0  0
   33.9520   52.7030   38.9270 H   0  0  0  0  0  0  0  0  0  0  0  0
   34.0970   51.0980   38.2890 H   0  0  0  0  0  0  0  0  0  0  0  0
   32.4890   51.5720   36.5090 H   0  0  0  0  0  0  0  0  0  0  0  0
   31.6120   52.4920   39.2910 H   0  0  0  0  0  0  0  0  0  0  0  0
   31.7420   50.8440   38.7350 H   0  0  0  0  0  0  0  0  0  0  0  0
   29.9610   51.2540   37.0400 H   0  0  0  0  0  0  0  0  0  0  0  0
   29.8610   54.0600   38.2310 H   0  0  0  0  0  0  0  0  0  0  0  0
   28.4090   52.8860   36.0850 H   0  0  0  0  0  0  0  0  0  0  0  0
   30.6260   54.7890   35.9780 H   0  0  0  0  0  0  0  0  0  0  0  0
   30.7190   53.1300   35.4450 H   0  0  0  0  0  0  0  0  0  0  0  0
   32.9310   53.9710   36.0590 H   0  0  0  0  0  0  0  0  0  0  0  0
   32.3860   54.4010   37.6630 H   0  0  0  0  0  0  0  0  0  0  0  0
   40.4450   55.2970   38.5860 H   0  0  0  0  0  0  0  0  0  0  0  0
   42.0160   54.8520   37.9400 H   0  0  0  0  0  0  0  0  0  0  0  0
   40.8370   55.6510   36.9140 H   0  0  0  0  0  0  0  0  0  0  0  0
   38.8710   46.1760   34.2480 H   0  0  0  0  0  0  0  0  0  0  0  0
   40.1730   47.3240   34.2840 H   0  0  0  0  0  0  0  0  0  0  0  0
   40.3910   45.7590   35.0480 H   0  0  0  0  0  0  0  0  0  0  0  0
   32.0080   41.1540   36.8810 H   0  0  0  0  0  0  0  0  0  0  0  0
   33.7420   41.1080   37.2040 H   0  0  0  0  0  0  0  0  0  0  0  0
   32.6670   42.0190   38.2570 H   0  0  0  0  0  0  0  0  0  0  0  0
   31.7010   45.6870   33.3520 H   0  0  0  0  0  0  0  0  0  0  0  0
   32.6960   44.2690   33.6360 H   0  0  0  0  0  0  0  0  0  0  0  0
   30.9450   44.1190   33.6210 H   0  0  0  0  0  0  0  0  0  0  0  0
   34.7240   47.9270   37.6700 H   0  0  0  0  0  0  0  0  0  0  0  0
   33.2920   48.4010   38.5560 H   0  0  0  0  0  0  0  0  0  0  0  0
   33.5120   46.7210   38.0670 H   0  0  0  0  0  0  0  0  0  0  0  0
   36.2570   47.2380   33.4610 H   0  0  0  0  0  0  0  0  0  0  0  0
   34.8840   46.2360   33.8910 H   0  0  0  0  0  0  0  0  0  0  0  0
   34.6510   47.6270   32.8400 H   0  0  0  0  0  0  0  0  0  0  0  0
   36.2950   53.1090   38.9270 H   0  0  0  0  0  0  0  0  0  0  0  0
   36.5490   51.4600   38.3720 H   0  0  0  0  0  0  0  0  0  0  0  0
   37.2740   52.8100   37.5090 H   0  0  0  0  0  0  0  0  0  0  0  0
   42.6880   46.5770   37.9380 H   0  0  0  0  0  0  0  0  0  0  0  0
   41.2680   46.9950   38.8920 H   0  0  0  0  0  0  0  0  0  0  0  0
   41.1410   45.8700   37.5280 H   0  0  0  0  0  0  0  0  0  0  0  0
   27.9340   46.6300   38.7660 H   0  0  0  0  0  0  0  0  0  0  0  0
   28.8380   45.2850   38.0720 H   0  0  0  0  0  0  0  0  0  0  0  0
   29.5450   46.2670   39.3680 H   0  0  0  0  0  0  0  0  0  0  0  0
   28.3240   50.0530   39.9890 H   0  0  0  0  0  0  0  0  0  0  0  0
   28.9480   49.6070   38.4070 H   0  0  0  0  0  0  0  0  0  0  0  0
   30.0550   49.9100   39.7620 H   0  0  0  0  0  0  0  0  0  0  0  0
  1  2  1  0  0  0  0
  1  3  2  0  0  0  0
  1  4  1  0  0  0  0
  2 45  1  0  0  0  0
  4  5  1  0  0  0  0
  4  9  1  0  0  0  0
  4 66  1  1  0  0  0
  5  6  1  0  0  0  0
  5 67  1  0  0  0  0
  5 68  1  0  0  0  0
  6  7  1  0  0  0  0
  6 69  1  0  0  0  0
  6 70  1  0  0  0  0
  7  8  1  0  0  0  0
  7 71  1  0  0  0  0
  7 72  1  0  0  0  0
  8  9  1  0  0  0  0
  8 73  1  0  0  0  0
  8 74  1  0  0  0  0
  9 10  1  0  0  0  0
 10 11  2  0  0  0  0
 10 12  1  0  0  0  0
 12 13  2  0  0  0  0
 12 14  1  0  0  0  0
 14 15  1  0  0  0  0
 14 16  1  1  0  0  0
 14 17  1  0  0  0  0
 15 20  1  0  0  0  0
 16 75  1  0  0  0  0
 17 18  1  0  0  0  0
 17 56  1  0  0  0  0
 17 76  1  6  0  0  0
 18 19  1  0  0  0  0
 18 77  1  0  0  0  0
 18 78  1  0  0  0  0
 19 20  1  0  0  0  0
 19 79  1  0  0  0  0
 19 80  1  0  0  0  0
 20 21  1  0  0  0  0
 20 81  1  1  0  0  0
 21 22  1  0  0  0  0
 21 82  1  0  0  0  0
 21 83  1  0  0  0  0
 22 23  1  0  0  0  0
 22 24  1  0  0  0  0
 22 84  1  1  0  0  0
 23 63  1  0  0  0  0
 24 25  2  0  0  0  0
 24 57  1  0  0  0  0
 25 26  1  0  0  0  0
 25 85  1  0  0  0  0
 26 27  2  0  0  0  0
 26 86  1  0  0  0  0
 27 28  1  0  0  0  0
 27 87  1  0  0  0  0
 28 29  2  0  0  0  0
 28 88  1  0  0  0  0
 29 30  1  0  0  0  0
 29 89  1  0  0  0  0
 30 31  1  0  0  0  0
 30 58  1  0  0  0  0
 30 90  1  6  0  0  0
 31 32  1  0  0  0  0
 31 91  1  0  0  0  0
 31 92  1  0  0  0  0
 32 33  1  0  0  0  0
 32 59  1  0  0  0  0
 32 93  1  1  0  0  0
 33 34  2  0  0  0  0
 33 35  1  0  0  0  0
 35 36  1  0  0  0  0
 35 37  1  0  0  0  0
 35 94  1  1  0  0  0
 36 64  1  0  0  0  0
 37 38  1  0  0  0  0
 37 39  1  0  0  0  0
 37 95  1  1  0  0  0
 38 96  1  0  0  0  0
 39 40  2  0  0  0  0
 39 60  1  0  0  0  0
 40 41  1  0  0  0  0
 40 97  1  0  0  0  0
 41 42  1  0  0  0  0
 41 61  1  0  0  0  0
 41 98  1  1  0  0  0
 42 43  2  0  0  0  0
 42 44  1  0  0  0  0
 44 45  1  0  0  0  0
 44 99  1  0  0  0  0
 44100  1  0  0  0  0
 45 46  1  0  0  0  0
 45101  1  6  0  0  0
 46 47  1  0  0  0  0
 46 62  1  0  0  0  0
 46102  1  6  0  0  0
 47 48  1  0  0  0  0
 47103  1  0  0  0  0
 47104  1  0  0  0  0
 48 49  1  0  0  0  0
 48 55  1  0  0  0  0
 48105  1  6  0  0  0
 49 50  1  0  0  0  0
 49106  1  0  0  0  0
 49107  1  0  0  0  0
 50 51  1  0  0  0  0
 50 52  1  0  0  0  0
 50108  1  6  0  0  0
 51 65  1  0  0  0  0
 52 53  1  0  0  0  0
 52 54  1  0  0  0  0
 52109  1  1  0  0  0
 53110  1  0  0  0  0
 54 55  1  0  0  0  0
 54111  1  0  0  0  0
 54112  1  0  0  0  0
 55113  1  0  0  0  0
 55114  1  0  0  0  0
 56115  1  0  0  0  0
 56116  1  0  0  0  0
 56117  1  0  0  0  0
 57118  1  0  0  0  0
 57119  1  0  0  0  0
 57120  1  0  0  0  0
 58121  1  0  0  0  0
 58122  1  0  0  0  0
 58123  1  0  0  0  0
 59124  1  0  0  0  0
 59125  1  0  0  0  0
 59126  1  0  0  0  0
 60127  1  0  0  0  0
 60128  1  0  0  0  0
 60129  1  0  0  0  0
 61130  1  0  0  0  0
 61131  1  0  0  0  0
 61132  1  0  0  0  0
 62133  1  0  0  0  0
 62134  1  0  0  0  0
 62135  1  0  0  0  0
 63136  1  0  0  0  0
 63137  1  0  0  0  0
 63138  1  0  0  0  0
 64139  1  0  0  0  0
 64140  1  0  0  0  0
 64141  1  0  0  0  0
 65142  1  0  0  0  0
 65143  1  0  0  0  0
 65144  1  0  0  0  0
M  END
>  <COMPND>
    title: molecule 1

$$$$
4DRJ_ligand0.pdb
 OpenBabel06042612053D

144147  0  0  1  0  0  0  0  0999 V2000
    6.8830   -8.3010  -12.3310 C   0  0  0  0  0  0  0  0  0  0  0  0
    5.5790   -8.8670  -12.1980 O   0  0  0  0  0  0  0  0  0  0  0  0
    7.0550   -7.0960  -12.4010 O   0  0  0  0  0  0  0  0  0  0  0  0
    8.0540   -9.2530  -12.3170 C   0  0  2  0  0  0  0  0  0  0  0  0
    8.9320   -8.9890  -13.5450 C   0  0  0  0  0  0  0  0  0  0  0  0
    8.3920   -9.6130  -14.8390 C   0  0  0  0  0  0  0  0  0  0  0  0
    8.0590  -11.0850  -14.6100 C   0  0  0  0  0  0  0  0  0  0  0  0
    7.0530  -11.2340  -13.4650 C   0  0  0  0  0  0  0  0  0  0  0  0
    7.6730  -10.6780  -12.2340 N   0  0  0  0  0  0  0  0  0  0  0  0
    7.8960  -11.3580  -11.0840 C   0  0  0  0  0  0  0  0  0  0  0  0
    8.3280  -10.8630  -10.0330 O   0  0  0  0  0  0  0  0  0  0  0  0
    7.6050  -12.7930  -11.0760 C   0  0  0  0  0  0  0  0  0  0  0  0
    8.4690  -13.5910  -11.4300 O   0  0  0  0  0  0  0  0  0  0  0  0
    6.2400  -13.2970  -10.6390 C   0  0  1  0  0  0  0  0  0  0  0  0
    5.4030  -13.0110  -11.7420 O   0  0  0  0  0  0  0  0  0  0  0  0
    6.3230  -14.7090  -10.3950 O   0  0  0  0  0  0  0  0  0  0  0  0
    5.7120  -12.5700   -9.3880 C   0  0  1  0  0  0  0  0  0  0  0  0
    4.2450  -12.9440   -9.1360 C   0  0  0  0  0  0  0  0  0  0  0  0
    3.3800  -12.7640  -10.4080 C   0  0  0  0  0  0  0  0  0  0  0  0
    4.0300  -13.4090  -11.6520 C   0  0  1  0  0  0  0  0  0  0  0  0
    3.4270  -12.9820  -13.0050 C   0  0  0  0  0  0  0  0  0  0  0  0
    1.9800  -13.4270  -13.2190 C   0  0  2  0  0  0  0  0  0  0  0  0
    1.9210  -14.8670  -13.2320 O   0  0  0  0  0  0  0  0  0  0  0  0
    1.4450  -12.7990  -14.4920 C   0  0  0  0  0  0  0  0  0  0  0  0
    0.4250  -11.9150  -14.4000 C   0  0  0  0  0  0  0  0  0  0  0  0
   -0.1550  -11.2160  -15.5590 C   0  0  0  0  0  0  0  0  0  0  0  0
   -1.0620  -10.2490  -15.3390 C   0  0  0  0  0  0  0  0  0  0  0  0
   -1.6380   -9.4590  -16.4350 C   0  0  0  0  0  0  0  0  0  0  0  0
   -2.6030   -8.5560  -16.2160 C   0  0  0  0  0  0  0  0  0  0  0  0
   -3.1330   -7.6710  -17.3420 C   0  0  2  0  0  0  0  0  0  0  0  0
   -2.7410   -6.2120  -17.0360 C   0  0  0  0  0  0  0  0  0  0  0  0
   -1.2240   -5.9440  -16.8690 C   0  0  2  0  0  0  0  0  0  0  0  0
   -1.0360   -4.6120  -16.1770 C   0  0  0  0  0  0  0  0  0  0  0  0
   -0.9820   -3.5710  -16.8520 O   0  0  0  0  0  0  0  0  0  0  0  0
   -0.9850   -4.5660  -14.6620 C   0  0  2  0  0  0  0  0  0  0  0  0
   -1.2210   -3.2550  -14.1530 O   0  0  0  0  0  0  0  0  0  0  0  0
    0.3900   -4.9460  -14.1380 C   0  0  2  0  0  0  0  0  0  0  0  0
    1.3430   -4.1530  -14.8530 O   0  0  0  0  0  0  0  0  0  0  0  0
    0.6770   -6.4300  -14.2260 C   0  0  0  0  0  0  0  0  0  0  0  0
    1.6930   -6.8900  -15.0250 C   0  0  0  0  0  0  0  0  0  0  0  0
    2.1160   -8.3510  -15.1590 C   0  0  2  0  0  0  0  0  0  0  0  0
    3.3950   -8.4770  -14.3700 C   0  0  0  0  0  0  0  0  0  0  0  0
    4.4960   -8.4110  -14.9480 O   0  0  0  0  0  0  0  0  0  0  0  0
    3.3010   -8.6510  -12.8670 C   0  0  0  0  0  0  0  0  0  0  0  0
    4.4700   -7.9600  -12.1470 C   0  0  1  0  0  0  0  0  0  0  0  0
    4.1520   -7.7000  -10.6810 C   0  0  1  0  0  0  0  0  0  0  0  0
    3.0960   -6.6040  -10.4350 C   0  0  0  0  0  0  0  0  0  0  0  0
    3.3640   -5.2330  -11.0520 C   0  0  1  0  0  0  0  0  0  0  0  0
    2.1900   -4.3060  -10.6610 C   0  0  0  0  0  0  0  0  0  0  0  0
    2.3560   -2.8610  -11.1210 C   0  0  1  0  0  0  0  0  0  0  0  0
    1.3250   -2.0520  -10.5590 O   0  0  0  0  0  0  0  0  0  0  0  0
    3.7020   -2.2690  -10.6680 C   0  0  2  0  0  0  0  0  0  0  0  0
    3.8390   -0.9390  -11.1930 O   0  0  0  0  0  0  0  0  0  0  0  0
    4.8630   -3.1790  -11.0850 C   0  0  0  0  0  0  0  0  0  0  0  0
    4.6960   -4.6200  -10.5460 C   0  0  0  0  0  0  0  0  0  0  0  0
    6.5300  -12.8330   -8.1020 C   0  0  0  0  0  0  0  0  0  0  0  0
    2.0480  -13.2080  -15.8170 C   0  0  0  0  0  0  0  0  0  0  0  0
   -4.6530   -7.7650  -17.4920 C   0  0  0  0  0  0  0  0  0  0  0  0
   -0.4880   -5.9890  -18.2130 C   0  0  0  0  0  0  0  0  0  0  0  0
   -0.1860   -7.3490  -13.3810 C   0  0  0  0  0  0  0  0  0  0  0  0
    2.3610   -8.7960  -16.6140 C   0  0  0  0  0  0  0  0  0  0  0  0
    3.7120   -8.9940   -9.9600 C   0  0  0  0  0  0  0  0  0  0  0  0
    0.5790  -15.4030  -13.2890 C   0  0  0  0  0  0  0  0  0  0  0  0
   -2.6000   -2.8810  -14.1670 C   0  0  0  0  0  0  0  0  0  0  0  0
    0.0300   -2.3030  -11.1240 C   0  0  0  0  0  0  0  0  0  0  0  0
    8.6680   -8.9590  -11.4640 H   0  0  0  0  0  0  0  0  0  0  0  0
    9.9020   -9.4380  -13.3380 H   0  0  0  0  0  0  0  0  0  0  0  0
    9.1360   -7.9280  -13.6890 H   0  0  0  0  0  0  0  0  0  0  0  0
    9.0960   -9.5030  -15.6500 H   0  0  0  0  0  0  0  0  0  0  0  0
    7.4920   -9.0820  -15.1500 H   0  0  0  0  0  0  0  0  0  0  0  0
    8.9690  -11.6450  -14.3890 H   0  0  0  0  0  0  0  0  0  0  0  0
    7.6450  -11.5130  -15.5230 H   0  0  0  0  0  0  0  0  0  0  0  0
    6.8160  -12.2920  -13.4410 H   0  0  0  0  0  0  0  0  0  0  0  0
    6.1190  -10.7330  -13.7140 H   0  0  0  0  0  0  0  0  0  0  0  0
    6.6360  -15.1140  -11.1980 H   0  0  0  0  0  0  0  0  0  0  0  0
    5.7120  -11.4980   -9.5750 H   0  0  0  0  0  0  0  0  0  0  0  0
    3.8320  -12.3340   -8.3320 H   0  0  0  0  0  0  0  0  0  0  0  0
    4.1600  -13.9740   -8.8020 H   0  0  0  0  0  0  0  0  0  0  0  0
    3.2320  -11.7030  -10.5950 H   0  0  0  0  0  0  0  0  0  0  0  0
    2.3910  -13.1890  -10.2410 H   0  0  0  0  0  0  0  0  0  0  0  0
    3.9850  -14.4950  -11.5660 H   0  0  0  0  0  0  0  0  0  0  0  0
    4.0580  -13.3990  -13.7900 H   0  0  0  0  0  0  0  0  0  0  0  0
    3.5000  -11.8990  -13.1020 H   0  0  0  0  0  0  0  0  0  0  0  0
    1.3850  -13.0800  -12.3730 H   0  0  0  0  0  0  0  0  0  0  0  0
    0.0350  -11.6770  -13.4220 H   0  0  0  0  0  0  0  0  0  0  0  0
    0.1380  -11.4320  -16.5710 H   0  0  0  0  0  0  0  0  0  0  0  0
   -1.3580  -10.0210  -14.3250 H   0  0  0  0  0  0  0  0  0  0  0  0
   -1.1840   -9.5170  -17.4000 H   0  0  0  0  0  0  0  0  0  0  0  0
   -3.0320   -8.4370  -15.2380 H   0  0  0  0  0  0  0  0  0  0  0  0
   -2.6760   -7.9640  -18.2880 H   0  0  0  0  0  0  0  0  0  0  0  0
   -3.2800   -5.8870  -16.1510 H   0  0  0  0  0  0  0  0  0  0  0  0
   -3.1190   -5.5730  -17.8360 H   0  0  0  0  0  0  0  0  0  0  0  0
   -0.8000   -6.7100  -16.2270 H   0  0  0  0  0  0  0  0  0  0  0  0
   -1.7160   -5.2480  -14.2460 H   0  0  0  0  0  0  0  0  0  0  0  0
    0.4580   -4.6660  -13.0890 H   0  0  0  0  0  0  0  0  0  0  0  0
    1.0520   -3.2520  -14.8450 H   0  0  0  0  0  0  0  0  0  0  0  0
    2.2870   -6.2150  -15.6230 H   0  0  0  0  0  0  0  0  0  0  0  0
    1.3800   -9.0190  -14.7220 H   0  0  0  0  0  0  0  0  0  0  0  0
    3.2570   -9.7110  -12.6220 H   0  0  0  0  0  0  0  0  0  0  0  0
    2.3570   -8.2160  -12.5480 H   0  0  0  0  0  0  0  0  0  0  0  0
    4.6990   -7.0210  -12.6520 H   0  0  0  0  0  0  0  0  0  0  0  0
    5.0700   -7.3580  -10.2080 H   0  0  0  0  0  0  0  0  0  0  0  0
    2.9630   -6.4910   -9.3580 H   0  0  0  0  0  0  0  0  0  0  0  0
    2.1400   -6.9520  -10.8200 H   0  0  0  0  0  0  0  0  0  0  0  0
    3.3900   -5.3160  -12.1380 H   0  0  0  0  0  0  0  0  0  0  0  0
    2.0840   -4.3050   -9.5750 H   0  0  0  0  0  0  0  0  0  0  0  0
    1.2670   -4.7360  -11.0430 H   0  0  0  0  0  0  0  0  0  0  0  0
    2.3080   -2.8220  -12.2120 H   0  0  0  0  0  0  0  0  0  0  0  0
    3.7040   -2.1880   -9.5800 H   0  0  0  0  0  0  0  0  0  0  0  0
    3.8050   -0.9860  -12.1420 H   0  0  0  0  0  0  0  0  0  0  0  0
    5.8060   -2.7600  -10.7330 H   0  0  0  0  0  0  0  0  0  0  0  0
    4.9160   -3.2050  -12.1720 H   0  0  0  0  0  0  0  0  0  0  0  0
    5.5430   -5.2200  -10.8780 H   0  0  0  0  0  0  0  0  0  0  0  0
    4.7250   -4.6140   -9.4560 H   0  0  0  0  0  0  0  0  0  0  0  0
    5.9120  -12.7870   -7.2040 H   0  0  0  0  0  0  0  0  0  0  0  0
    7.0570  -13.7840   -8.1050 H   0  0  0  0  0  0  0  0  0  0  0  0
    7.3000  -12.0720   -7.9790 H   0  0  0  0  0  0  0  0  0  0  0  0
    1.8730  -12.5140  -16.6330 H   0  0  0  0  0  0  0  0  0  0  0  0
    3.1280  -13.3190  -15.7430 H   0  0  0  0  0  0  0  0  0  0  0  0
    1.6440  -14.1800  -16.0930 H   0  0  0  0  0  0  0  0  0  0  0  0
   -5.0430   -6.9750  -18.1290 H   0  0  0  0  0  0  0  0  0  0  0  0
   -4.9480   -8.7270  -17.9110 H   0  0  0  0  0  0  0  0  0  0  0  0
   -5.1370   -7.6660  -16.5230 H   0  0  0  0  0  0  0  0  0  0  0  0
    0.5540   -5.6810  -18.1070 H   0  0  0  0  0  0  0  0  0  0  0  0
   -0.4810   -7.0010  -18.6130 H   0  0  0  0  0  0  0  0  0  0  0  0
   -0.9530   -5.3410  -18.9580 H   0  0  0  0  0  0  0  0  0  0  0  0
    0.2360   -8.3350  -13.2040 H   0  0  0  0  0  0  0  0  0  0  0  0
   -0.3490   -6.8970  -12.4030 H   0  0  0  0  0  0  0  0  0  0  0  0
   -1.1570   -7.4780  -13.8550 H   0  0  0  0  0  0  0  0  0  0  0  0
    2.6910   -9.8330  -16.6610 H   0  0  0  0  0  0  0  0  0  0  0  0
    1.4360   -8.7310  -17.1880 H   0  0  0  0  0  0  0  0  0  0  0  0
    3.0980   -8.1740  -17.1250 H   0  0  0  0  0  0  0  0  0  0  0  0
    3.6170   -8.8290   -8.8860 H   0  0  0  0  0  0  0  0  0  0  0  0
    2.7470   -9.3540  -10.3160 H   0  0  0  0  0  0  0  0  0  0  0  0
    4.4400   -9.7890  -10.0960 H   0  0  0  0  0  0  0  0  0  0  0  0
    0.6180  -16.4810  -13.4200 H   0  0  0  0  0  0  0  0  0  0  0  0
    0.0380  -15.1840  -12.3690 H   0  0  0  0  0  0  0  0  0  0  0  0
    0.0110  -15.0070  -14.1310 H   0  0  0  0  0  0  0  0  0  0  0  0
   -2.6970   -1.8450  -13.8440 H   0  0  0  0  0  0  0  0  0  0  0  0
   -3.0510   -2.9650  -15.1550 H   0  0  0  0  0  0  0  0  0  0  0  0
   -3.1670   -3.4950  -13.4690 H   0  0  0  0  0  0  0  0  0  0  0  0
   -0.6710   -1.5640  -10.7390 H   0  0  0  0  0  0  0  0  0  0  0  0
    0.0500   -2.2020  -12.2080 H   0  0  0  0  0  0  0  0  0  0  0  0
   -0.3630   -3.2850  -10.8620 H   0  0  0  0  0  0  0  0  0  0  0  0
  1  2  1  0  0  0  0
  1  3  2  0  0  0  0
  1  4  1  0  0  0  0
  2 45  1  0  0  0  0
  4  5  1  0  0  0  0
  4  9  1  0  0  0  0
  4 66  1  1  0  0  0
  5  6  1  0  0  0  0
  5 67  1  0  0  0  0
  5 68  1  0  0  0  0
  6  7  1  0  0  0  0
  6 69  1  0  0  0  0
  6 70  1  0  0  0  0
  7  8  1  0  0  0  0
  7 71  1  0  0  0  0
  7 72  1  0  0  0  0
  8  9  1  0  0  0  0
  8 73  1  0  0  0  0
  8 74  1  0  0  0  0
  9 10  1  0  0  0  0
 10 11  2  0  0  0  0
 10 12  1  0  0  0  0
 12 13  2  0  0  0  0
 12 14  1  0  0  0  0
 14 15  1  0  0  0  0
 14 16  1  1  0  0  0
 14 17  1  0  0  0  0
 15 20  1  0  0  0  0
 16 75  1  0  0  0  0
 17 18  1  0  0  0  0
 17 56  1  0  0  0  0
 17 76  1  6  0  0  0
 18 19  1  0  0  0  0
 18 77  1  0  0  0  0
 18 78  1  0  0  0  0
 19 20  1  0  0  0  0
 19 79  1  0  0  0  0
 19 80  1  0  0  0  0
 20 21  1  0  0  0  0
 20 81  1  1  0  0  0
 21 22  1  0  0  0  0
 21 82  1  0  0  0  0
 21 83  1  0  0  0  0
 22 23  1  0  0  0  0
 22 24  1  0  0  0  0
 22 84  1  1  0  0  0
 23 63  1  0  0  0  0
 24 25  2  0  0  0  0
 24 57  1  0  0  0  0
 25 26  1  0  0  0  0
 25 85  1  0  0  0  0
 26 27  2  0  0  0  0
 26 86  1  0  0  0  0
 27 28  1  0  0  0  0
 27 87  1  0  0  0  0
 28 29  2  0  0  0  0
 28 88  1  0  0  0  0
 29 30  1  0  0  0  0
 29 89  1  0  0  0  0
 30 31  1  0  0  0  0
 30 58  1  0  0  0  0
 30 90  1  6  0  0  0
 31 32  1  0  0  0  0
 31 91  1  0  0  0  0
 31 92  1  0  0  0  0
 32 33  1  0  0  0  0
 32 59  1  0  0  0  0
 32 93  1  1  0  0  0
 33 34  2  0  0  0  0
 33 35  1  0  0  0  0
 35 36  1  0  0  0  0
 35 37  1  0  0  0  0
 35 94  1  1  0  0  0
 36 64  1  0  0  0  0
 37 38  1  0  0  0  0
 37 39  1  0  0  0  0
 37 95  1  1  0  0  0
 38 96  1  0  0  0  0
 39 40  2  0  0  0  0
 39 60  1  0  0  0  0
 40 41  1  0  0  0  0
 40 97  1  0  0  0  0
 41 42  1  0  0  0  0
 41 61  1  0  0  0  0
 41 98  1  1  0  0  0
 42 43  2  0  0  0  0
 42 44  1  0  0  0  0
 44 45  1  0  0  0  0
 44 99  1  0  0  0  0
 44100  1  0  0  0  0
 45 46  1  0  0  0  0
 45101  1  6  0  0  0
 46 47  1  0  0  0  0
 46 62  1  0  0  0  0
 46102  1  1  0  0  0
 47 48  1  0  0  0  0
 47103  1  0  0  0  0
 47104  1  0  0  0  0
 48 49  1  0  0  0  0
 48 55  1  0  0  0  0
 48105  1  6  0  0  0
 49 50  1  0  0  0  0
 49106  1  0  0  0  0
 49107  1  0  0  0  0
 50 51  1  0  0  0  0
 50 52  1  0  0  0  0
 50108  1  6  0  0  0
 51 65  1  0  0  0  0
 52 53  1  0  0  0  0
 52 54  1  0  0  0  0
 52109  1  1  0  0  0
 53110  1  0  0  0  0
 54 55  1  0  0  0  0
 54111  1  0  0  0  0
 54112  1  0  0  0  0
 55113  1  0  0  0  0
 55114  1  0  0  0  0
 56115  1  0  0  0  0
 56116  1  0  0  0  0
 56117  1  0  0  0  0
 57118  1  0  0  0  0
 57119  1  0  0  0  0
 57120  1  0  0  0  0
 58121  1  0  0  0  0
 58122  1  0  0  0  0
 58123  1  0  0  0  0
 59124  1  0  0  0  0
 59125  1  0  0  0  0
 59126  1  0  0  0  0
 60127  1  0  0  0  0
 60128  1  0  0  0  0
 60129  1  0  0  0  0
 61130  1  0  0  0  0
 61131  1  0  0  0  0
 61132  1  0  0  0  0
 62133  1  0  0  0  0
 62134  1  0  0  0  0
 62135  1  0  0  0  0
 63136  1  0  0  0  0
 63137  1  0  0  0  0
 63138  1  0  0  0  0
 64139  1  0  0  0  0
 64140  1  0  0  0  0
 64141  1  0  0  0  0
 65142  1  0  0  0  0
 65143  1  0  0  0  0
 65144  1  0  0  0  0
M  END
>  <COMPND>
    title: molecule 1

$$$$
4DS8_ligand0.pdb
 OpenBabel06042612053D

 38 38  0  0  1  0  0  0  0  0999 V2000
   -7.9020  -11.9650   36.0930 C   0  0  0  0  0  0  0  0  0  0  0  0
   -6.4840  -11.8720   36.5340 C   0  0  0  0  0  0  0  0  0  0  0  0
   -5.3920  -12.0930   35.7680 C   0  0  0  0  0  0  0  0  0  0  0  0
   -5.4730  -12.4400   34.3260 C   0  0  0  0  0  0  0  0  0  0  0  0
   -4.3620  -12.6120   33.5910 C   0  0  0  0  0  0  0  0  0  0  0  0
   -4.0410  -11.9710   36.4140 C   0  0  0  0  0  0  0  0  0  0  0  0
   -4.3840  -12.9580   32.1100 C   0  0  1  0  0  0  0  0  0  0  0  0
   -5.7420  -13.0060   31.6460 O   0  0  0  0  0  0  0  0  0  0  0  0
   -3.6500  -11.8140   31.4220 C   0  0  0  0  0  0  0  0  0  0  0  0
   -2.3130  -11.8530   31.2540 C   0  0  0  0  0  0  0  0  0  0  0  0
   -1.5370  -13.0830   31.5320 C   0  0  0  0  0  0  0  0  0  0  0  0
   -0.3430  -13.1120   31.2550 O   0  0  0  0  0  0  0  0  0  0  0  0
   -2.2180  -14.2850   32.1600 C   0  0  0  0  0  0  0  0  0  0  0  0
   -8.8060  -12.0620   36.9520 O   0  5  0  0  0  0  0  0  0  0  0  0
   -3.7190  -14.3260   31.8410 C   0  0  0  0  0  0  0  0  0  0  0  0
   -8.1940  -11.9630   34.8880 O   0  0  0  0  0  0  0  0  0  0  0  0
   -4.3870  -10.6020   30.9220 C   0  0  0  0  0  0  0  0  0  0  0  0
   -4.3900  -15.4180   32.6690 C   0  0  0  0  0  0  0  0  0  0  0  0
   -3.8800  -14.7740   30.3850 C   0  0  0  0  0  0  0  0  0  0  0  0
   -6.3340  -11.6000   37.5660 H   0  0  0  0  0  0  0  0  0  0  0  0
   -6.3990  -12.6090   33.8220 H   0  0  0  0  0  0  0  0  0  0  0  0
   -3.3810  -12.4960   34.0260 H   0  0  0  0  0  0  0  0  0  0  0  0
   -3.5150  -12.9250   36.3830 H   0  0  0  0  0  0  0  0  0  0  0  0
   -3.4350  -11.2160   35.9120 H   0  0  0  0  0  0  0  0  0  0  0  0
   -4.1190  -11.6750   37.4600 H   0  0  0  0  0  0  0  0  0  0  0  0
   -6.1630  -12.1820   31.8470 H   0  0  0  0  0  0  0  0  0  0  0  0
   -1.7900  -11.0340   30.7840 H   0  0  0  0  0  0  0  0  0  0  0  0
   -2.0700  -14.2230   33.2310 H   0  0  0  0  0  0  0  0  0  0  0  0
   -1.7320  -15.2020   31.8350 H   0  0  0  0  0  0  0  0  0  0  0  0
   -3.7140   -9.8510   30.5050 H   0  0  0  0  0  0  0  0  0  0  0  0
   -5.1000  -10.8760   30.1460 H   0  0  0  0  0  0  0  0  0  0  0  0
   -4.9390  -10.1360   31.7380 H   0  0  0  0  0  0  0  0  0  0  0  0
   -3.9540  -16.3950   32.4570 H   0  0  0  0  0  0  0  0  0  0  0  0
   -4.2710  -15.2580   33.7410 H   0  0  0  0  0  0  0  0  0  0  0  0
   -5.4590  -15.4930   32.4670 H   0  0  0  0  0  0  0  0  0  0  0  0
   -3.3690  -15.7190   30.1950 H   0  0  0  0  0  0  0  0  0  0  0  0
   -4.9260  -14.9240   30.1150 H   0  0  0  0  0  0  0  0  0  0  0  0
   -3.4790  -14.0470   29.6790 H   0  0  0  0  0  0  0  0  0  0  0  0
  1  2  1  0  0  0  0
  1 14  1  0  0  0  0
  1 16  2  0  0  0  0
  2  3  2  0  0  0  0
  2 20  1  0  0  0  0
  3  4  1  0  0  0  0
  3  6  1  0  0  0  0
  4  5  2  0  0  0  0
  4 21  1  0  0  0  0
  5 22  1  0  0  0  0
  6 23  1  0  0  0  0
  6 24  1  0  0  0  0
  6 25  1  0  0  0  0
  7  5  1  1  0  0  0
  7  8  1  0  0  0  0
  7  9  1  0  0  0  0
  7 15  1  0  0  0  0
  8 26  1  0  0  0  0
  9 10  2  0  0  0  0
  9 17  1  0  0  0  0
 10 11  1  0  0  0  0
 10 27  1  0  0  0  0
 11 12  2  0  0  0  0
 11 13  1  0  0  0  0
 13 15  1  0  0  0  0
 13 28  1  0  0  0  0
 13 29  1  0  0  0  0
 15 18  1  0  0  0  0
 15 19  1  0  0  0  0
 17 30  1  0  0  0  0
 17 31  1  0  0  0  0
 17 32  1  0  0  0  0
 18 33  1  0  0  0  0
 18 34  1  0  0  0  0
 18 35  1  0  0  0  0
 19 36  1  0  0  0  0
 19 37  1  0  0  0  0
 19 38  1  0  0  0  0
M  CHG  1  14  -1
M  END
>  <COMPND>
    title: molecule 1

$$$$
4FAP_ligand0.pdb
 OpenBabel06042612053D

150154  0  0  1  0  0  0  0  0999 V2000
   -7.9220   26.2200   39.4010 O   0  0  0  0  0  0  0  0  0  0  0  0
   -6.9500   25.7180   40.3370 C   0  0  0  0  0  0  0  0  0  0  0  0
   -5.7600   25.6540   40.0230 O   0  0  0  0  0  0  0  0  0  0  0  0
   -7.4010   25.2720   41.7190 C   0  0  2  0  0  0  0  0  0  0  0  0
   -7.0340   23.8180   42.0010 C   0  0  0  0  0  0  0  0  0  0  0  0
   -7.9270   22.7980   41.3100 C   0  0  0  0  0  0  0  0  0  0  0  0
   -9.3910   23.0840   41.5500 C   0  0  0  0  0  0  0  0  0  0  0  0
   -9.7320   24.4660   41.0680 C   0  0  0  0  0  0  0  0  0  0  0  0
   -8.8590   25.3080   41.8900 N   0  0  0  0  0  0  0  0  0  0  0  0
   -9.3380   26.1820   42.7850 C   0  0  0  0  0  0  0  0  0  0  0  0
   -8.6030   27.0050   43.3310 O   0  0  0  0  0  0  0  0  0  0  0  0
  -10.6770   26.1440   43.2080 C   0  0  0  0  0  0  0  0  0  0  0  0
  -10.8880   25.3690   44.1390 O   0  0  0  0  0  0  0  0  0  0  0  0
  -11.8230   26.9850   42.6260 C   0  0  1  0  0  0  0  0  0  0  0  0
  -11.3530   28.4550   42.4770 C   0  0  1  0  0  0  0  0  0  0  0  0
  -12.1420   29.1540   41.3710 C   0  0  0  0  0  0  0  0  0  0  0  0
  -12.3260   28.3220   40.1150 C   0  0  0  0  0  0  0  0  0  0  0  0
  -12.8170   26.9000   40.3990 C   0  0  2  0  0  0  0  0  0  0  0  0
  -11.9760   26.3790   41.3730 O   0  0  0  0  0  0  0  0  0  0  0  0
  -13.0640   26.9460   43.3550 O   0  0  0  0  0  0  0  0  0  0  0  0
  -11.5330   29.2190   43.7870 C   0  0  0  0  0  0  0  0  0  0  0  0
  -12.8750   25.8990   39.2440 C   0  0  0  0  0  0  0  0  0  0  0  0
  -14.0070   26.0080   38.2150 C   0  0  2  0  0  0  0  0  0  0  0  0
  -15.2720   25.4690   38.7350 C   0  0  0  0  0  0  0  0  0  0  0  0
  -13.5240   25.3330   36.9820 C   0  0  0  0  0  0  0  0  0  0  0  0
  -13.1350   23.8860   37.1890 C   0  0  0  0  0  0  0  0  0  0  0  0
  -13.3990   26.0060   35.8440 C   0  0  0  0  0  0  0  0  0  0  0  0
  -12.9180   25.4610   34.5690 C   0  0  0  0  0  0  0  0  0  0  0  0
  -12.7680   26.2030   33.4840 C   0  0  0  0  0  0  0  0  0  0  0  0
  -12.1680   25.6150   32.2860 C   0  0  0  0  0  0  0  0  0  0  0  0
  -11.9360   26.2630   31.1560 C   0  0  0  0  0  0  0  0  0  0  0  0
  -11.3350   25.6250   29.9080 C   0  0  1  0  0  0  0  0  0  0  0  0
  -12.0060   26.1920   28.6720 C   0  0  0  0  0  0  0  0  0  0  0  0
   -9.8310   25.8840   29.8310 C   0  0  0  0  0  0  0  0  0  0  0  0
   -8.9710   25.1890   30.8850 C   0  0  1  0  0  0  0  0  0  0  0  0
   -8.9100   23.7080   30.6170 C   0  0  0  0  0  0  0  0  0  0  0  0
   -7.5730   25.7780   30.8590 C   0  0  0  0  0  0  0  0  0  0  0  0
   -6.6290   25.1110   30.4350 O   0  0  0  0  0  0  0  0  0  0  0  0
   -7.3730   27.2270   31.3180 C   0  0  2  0  0  0  0  0  0  0  0  0
   -6.2710   27.8440   30.7030 O   0  0  0  0  0  0  0  0  0  0  0  0
   -5.8560   27.4680   29.4310 C   0  0  0  0  0  0  0  0  0  0  0  0
   -7.1550   27.2890   32.8490 C   0  0  2  0  0  0  0  0  0  0  0  0
   -6.0060   26.5020   33.1930 O   0  0  0  0  0  0  0  0  0  0  0  0
   -8.3140   26.8400   33.7930 C   0  0  0  0  0  0  0  0  0  0  0  0
   -9.4060   27.9000   34.0700 C   0  0  0  0  0  0  0  0  0  0  0  0
   -8.3450   25.6110   34.3190 C   0  0  0  0  0  0  0  0  0  0  0  0
   -9.3460   25.0430   35.3000 C   0  0  1  0  0  0  0  0  0  0  0  0
   -9.4730   23.5610   35.0610 C   0  0  0  0  0  0  0  0  0  0  0  0
   -8.9000   25.2970   36.7280 C   0  0  0  0  0  0  0  0  0  0  0  0
   -8.5970   24.3540   37.4510 O   0  0  0  0  0  0  0  0  0  0  0  0
   -8.8480   26.7150   37.2530 C   0  0  0  0  0  0  0  0  0  0  0  0
   -7.6890   26.9440   38.2280 C   0  0  1  0  0  0  0  0  0  0  0  0
   -7.5720   28.4600   38.5910 C   0  0  2  0  0  0  0  0  0  0  0  0
   -8.9260   29.0200   39.0040 C   0  0  0  0  0  0  0  0  0  0  0  0
   -7.0640   29.2500   37.3870 C   0  0  0  0  0  0  0  0  0  0  0  0
   -5.7890   28.7090   36.7400 C   0  0  1  0  0  0  0  0  0  0  0  0
   -5.3800   29.6480   35.6160 C   0  0  0  0  0  0  0  0  0  0  0  0
   -4.0070   29.4240   34.9740 C   0  0  1  0  0  0  0  0  0  0  0  0
   -3.7190   30.5230   34.2150 O   0  0  0  0  0  0  0  0  0  0  0  0
   -4.5280   30.7630   33.0970 C   0  0  0  0  0  0  0  0  0  0  0  0
   -2.8930   29.3270   36.0400 C   0  0  2  0  0  0  0  0  0  0  0  0
   -1.6970   28.8170   35.4310 O   0  0  0  0  0  0  0  0  0  0  0  0
   -3.2880   28.3750   37.1730 C   0  0  0  0  0  0  0  0  0  0  0  0
   -4.6620   28.6360   37.7730 C   0  0  0  0  0  0  0  0  0  0  0  0
  -17.5360   25.2800   39.5600 C   0  0  0  0  0  0  0  0  0  0  0  0
  -16.6380   24.5170   40.3040 C   0  0  0  0  0  0  0  0  0  0  0  0
  -15.3420   24.5800   39.8050 C   0  0  0  0  0  0  0  0  0  0  0  0
  -18.9950   25.3360   39.8010 C   0  0  0  0  0  0  0  0  0  0  0  0
  -16.7320   26.2490   38.4520 S   0  0  0  0  0  0  0  0  0  0  0  0
   -6.8210   25.8580   42.4340 H   0  0  0  0  0  0  0  0  0  0  0  0
   -7.1180   23.6630   43.0770 H   0  0  0  0  0  0  0  0  0  0  0  0
   -5.9880   23.6230   41.7600 H   0  0  0  0  0  0  0  0  0  0  0  0
   -7.6850   21.7930   41.6390 H   0  0  0  0  0  0  0  0  0  0  0  0
   -7.7280   22.8110   40.2370 H   0  0  0  0  0  0  0  0  0  0  0  0
   -9.6290   22.9700   42.6090 H   0  0  0  0  0  0  0  0  0  0  0  0
   -9.9950   22.3490   41.0170 H   0  0  0  0  0  0  0  0  0  0  0  0
  -10.8000   24.5240   41.2080 H   0  0  0  0  0  0  0  0  0  0  0  0
   -9.5590   24.5590   39.9990 H   0  0  0  0  0  0  0  0  0  0  0  0
  -10.3130   28.5100   42.1620 H   0  0  0  0  0  0  0  0  0  0  0  0
  -11.6760   30.1080   41.1200 H   0  0  0  0  0  0  0  0  0  0  0  0
  -13.1360   29.4000   41.7490 H   0  0  0  0  0  0  0  0  0  0  0  0
  -11.3980   28.2610   39.5610 H   0  0  0  0  0  0  0  0  0  0  0  0
  -13.0350   28.8180   39.4530 H   0  0  0  0  0  0  0  0  0  0  0  0
  -13.8170   26.9590   40.8310 H   0  0  0  0  0  0  0  0  0  0  0  0
  -13.3620   26.0410   43.3630 H   0  0  0  0  0  0  0  0  0  0  0  0
  -11.2460   30.2640   43.6690 H   0  0  0  0  0  0  0  0  0  0  0  0
  -12.5530   29.1990   44.1610 H   0  0  0  0  0  0  0  0  0  0  0  0
  -10.8910   28.7930   44.5570 H   0  0  0  0  0  0  0  0  0  0  0  0
  -12.7680   24.8910   39.6390 H   0  0  0  0  0  0  0  0  0  0  0  0
  -11.9290   26.0490   38.7190 H   0  0  0  0  0  0  0  0  0  0  0  0
  -14.1490   27.0680   37.9980 H   0  0  0  0  0  0  0  0  0  0  0  0
  -13.0680   23.3330   36.2550 H   0  0  0  0  0  0  0  0  0  0  0  0
  -12.1620   23.8080   37.6750 H   0  0  0  0  0  0  0  0  0  0  0  0
  -13.8650   23.3540   37.7970 H   0  0  0  0  0  0  0  0  0  0  0  0
  -13.6880   27.0470   35.8410 H   0  0  0  0  0  0  0  0  0  0  0  0
  -12.6140   24.4270   34.5130 H   0  0  0  0  0  0  0  0  0  0  0  0
  -13.0340   27.2500   33.4970 H   0  0  0  0  0  0  0  0  0  0  0  0
  -11.8800   24.5770   32.3250 H   0  0  0  0  0  0  0  0  0  0  0  0
  -12.1820   27.3100   31.0950 H   0  0  0  0  0  0  0  0  0  0  0  0
  -11.5300   24.5540   29.9320 H   0  0  0  0  0  0  0  0  0  0  0  0
  -11.5520   25.8210   27.7530 H   0  0  0  0  0  0  0  0  0  0  0  0
  -13.0660   25.9350   28.6470 H   0  0  0  0  0  0  0  0  0  0  0  0
  -11.9260   27.2740   28.6660 H   0  0  0  0  0  0  0  0  0  0  0  0
   -9.6790   26.9510   29.8530 H   0  0  0  0  0  0  0  0  0  0  0  0
   -9.4720   25.5770   28.8460 H   0  0  0  0  0  0  0  0  0  0  0  0
   -9.3990   25.3590   31.8700 H   0  0  0  0  0  0  0  0  0  0  0  0
   -8.3570   23.1950   31.4050 H   0  0  0  0  0  0  0  0  0  0  0  0
   -9.8980   23.2530   30.5880 H   0  0  0  0  0  0  0  0  0  0  0  0
   -8.4120   23.4830   29.6760 H   0  0  0  0  0  0  0  0  0  0  0  0
   -8.2510   27.8160   31.0680 H   0  0  0  0  0  0  0  0  0  0  0  0
   -5.3430   28.3200   28.9850 H   0  0  0  0  0  0  0  0  0  0  0  0
   -5.1240   26.6600   29.4390 H   0  0  0  0  0  0  0  0  0  0  0  0
   -6.6890   27.2330   28.7720 H   0  0  0  0  0  0  0  0  0  0  0  0
   -6.9140   28.3180   33.1140 H   0  0  0  0  0  0  0  0  0  0  0  0
   -5.8790   26.5230   34.1310 H   0  0  0  0  0  0  0  0  0  0  0  0
  -10.1860   27.5710   34.7530 H   0  0  0  0  0  0  0  0  0  0  0  0
   -8.9510   28.8000   34.4810 H   0  0  0  0  0  0  0  0  0  0  0  0
   -9.8900   28.1610   33.1320 H   0  0  0  0  0  0  0  0  0  0  0  0
   -7.5550   24.9140   34.0780 H   0  0  0  0  0  0  0  0  0  0  0  0
  -10.3160   25.5130   35.1580 H   0  0  0  0  0  0  0  0  0  0  0  0
  -10.2190   23.1120   35.7180 H   0  0  0  0  0  0  0  0  0  0  0  0
   -9.8040   23.3670   34.0400 H   0  0  0  0  0  0  0  0  0  0  0  0
   -8.5310   23.0270   35.1990 H   0  0  0  0  0  0  0  0  0  0  0  0
   -9.8080   26.9150   37.7270 H   0  0  0  0  0  0  0  0  0  0  0  0
   -8.7540   27.3930   36.4160 H   0  0  0  0  0  0  0  0  0  0  0  0
   -6.7640   26.5610   37.8010 H   0  0  0  0  0  0  0  0  0  0  0  0
   -6.8700   28.5820   39.4150 H   0  0  0  0  0  0  0  0  0  0  0  0
   -8.8270   30.0600   39.3180 H   0  0  0  0  0  0  0  0  0  0  0  0
   -9.6690   29.0010   38.2090 H   0  0  0  0  0  0  0  0  0  0  0  0
   -9.3000   28.4720   39.8670 H   0  0  0  0  0  0  0  0  0  0  0  0
   -6.9050   30.2820   37.7040 H   0  0  0  0  0  0  0  0  0  0  0  0
   -7.8400   29.2950   36.6250 H   0  0  0  0  0  0  0  0  0  0  0  0
   -5.9590   27.7320   36.2950 H   0  0  0  0  0  0  0  0  0  0  0  0
   -5.3950   30.6700   36.0010 H   0  0  0  0  0  0  0  0  0  0  0  0
   -6.1600   29.6100   34.8580 H   0  0  0  0  0  0  0  0  0  0  0  0
   -4.0240   28.5160   34.3670 H   0  0  0  0  0  0  0  0  0  0  0  0
   -4.0660   31.5360   32.4830 H   0  0  0  0  0  0  0  0  0  0  0  0
   -4.6370   29.8700   32.4800 H   0  0  0  0  0  0  0  0  0  0  0  0
   -5.5190   31.1280   33.3690 H   0  0  0  0  0  0  0  0  0  0  0  0
   -2.6910   30.3140   36.4590 H   0  0  0  0  0  0  0  0  0  0  0  0
   -1.8830   27.9800   35.0220 H   0  0  0  0  0  0  0  0  0  0  0  0
   -2.5300   28.4060   37.9540 H   0  0  0  0  0  0  0  0  0  0  0  0
   -3.2810   27.3610   36.7790 H   0  0  0  0  0  0  0  0  0  0  0  0
   -4.8700   27.8590   38.5070 H   0  0  0  0  0  0  0  0  0  0  0  0
   -4.6170   29.5730   38.3290 H   0  0  0  0  0  0  0  0  0  0  0  0
  -16.9020   23.8860   41.1390 H   0  0  0  0  0  0  0  0  0  0  0  0
  -14.5420   24.0200   40.2640 H   0  0  0  0  0  0  0  0  0  0  0  0
  -19.4420   26.2060   39.3180 H   0  0  0  0  0  0  0  0  0  0  0  0
  -19.4850   24.4450   39.4060 H   0  0  0  0  0  0  0  0  0  0  0  0
  -19.2120   25.3970   40.8670 H   0  0  0  0  0  0  0  0  0  0  0  0
  1  2  1  0  0  0  0
  1 52  1  0  0  0  0
  2  3  2  0  0  0  0
  2  4  1  0  0  0  0
  4  5  1  0  0  0  0
  4  9  1  0  0  0  0
  4 70  1  1  0  0  0
  5  6  1  0  0  0  0
  5 71  1  0  0  0  0
  5 72  1  0  0  0  0
  6  7  1  0  0  0  0
  6 73  1  0  0  0  0
  6 74  1  0  0  0  0
  7  8  1  0  0  0  0
  7 75  1  0  0  0  0
  7 76  1  0  0  0  0
  8  9  1  0  0  0  0
  8 77  1  0  0  0  0
  8 78  1  0  0  0  0
  9 10  1  0  0  0  0
 10 11  2  0  0  0  0
 10 12  1  0  0  0  0
 12 13  2  0  0  0  0
 12 14  1  0  0  0  0
 14 15  1  0  0  0  0
 14 19  1  0  0  0  0
 14 20  1  1  0  0  0
 15 16  1  0  0  0  0
 15 21  1  0  0  0  0
 15 79  1  6  0  0  0
 16 17  1  0  0  0  0
 16 80  1  0  0  0  0
 16 81  1  0  0  0  0
 17 18  1  0  0  0  0
 17 82  1  0  0  0  0
 17 83  1  0  0  0  0
 18 19  1  0  0  0  0
 18 22  1  0  0  0  0
 18 84  1  1  0  0  0
 20 85  1  0  0  0  0
 21 86  1  0  0  0  0
 21 87  1  0  0  0  0
 21 88  1  0  0  0  0
 22 23  1  0  0  0  0
 22 89  1  0  0  0  0
 22 90  1  0  0  0  0
 23 24  1  0  0  0  0
 23 25  1  0  0  0  0
 23 91  1  6  0  0  0
 24 67  2  0  0  0  0
 24 69  1  0  0  0  0
 25 26  1  0  0  0  0
 25 27  2  0  0  0  0
 26 92  1  0  0  0  0
 26 93  1  0  0  0  0
 26 94  1  0  0  0  0
 27 28  1  0  0  0  0
 27 95  1  0  0  0  0
 28 29  2  0  0  0  0
 28 96  1  0  0  0  0
 29 30  1  0  0  0  0
 29 97  1  0  0  0  0
 30 31  2  0  0  0  0
 30 98  1  0  0  0  0
 31 32  1  0  0  0  0
 31 99  1  0  0  0  0
 32 33  1  0  0  0  0
 32 34  1  0  0  0  0
 32100  1  1  0  0  0
 33101  1  0  0  0  0
 33102  1  0  0  0  0
 33103  1  0  0  0  0
 34 35  1  0  0  0  0
 34104  1  0  0  0  0
 34105  1  0  0  0  0
 35 36  1  0  0  0  0
 35 37  1  0  0  0  0
 35106  1  1  0  0  0
 36107  1  0  0  0  0
 36108  1  0  0  0  0
 36109  1  0  0  0  0
 37 38  2  0  0  0  0
 37 39  1  0  0  0  0
 39 40  1  0  0  0  0
 39 42  1  0  0  0  0
 39110  1  6  0  0  0
 40 41  1  0  0  0  0
 41111  1  0  0  0  0
 41112  1  0  0  0  0
 41113  1  0  0  0  0
 42 43  1  0  0  0  0
 42 44  1  0  0  0  0
 42114  1  1  0  0  0
 43115  1  0  0  0  0
 44 45  1  0  0  0  0
 44 46  2  0  0  0  0
 45116  1  0  0  0  0
 45117  1  0  0  0  0
 45118  1  0  0  0  0
 46 47  1  0  0  0  0
 46119  1  0  0  0  0
 47 48  1  0  0  0  0
 47 49  1  0  0  0  0
 47120  1  6  0  0  0
 48121  1  0  0  0  0
 48122  1  0  0  0  0
 48123  1  0  0  0  0
 49 50  2  0  0  0  0
 49 51  1  0  0  0  0
 51 52  1  0  0  0  0
 51124  1  0  0  0  0
 51125  1  0  0  0  0
 52 53  1  0  0  0  0
 52126  1  6  0  0  0
 53 54  1  0  0  0  0
 53 55  1  0  0  0  0
 53127  1  1  0  0  0
 54128  1  0  0  0  0
 54129  1  0  0  0  0
 54130  1  0  0  0  0
 55 56  1  0  0  0  0
 55131  1  0  0  0  0
 55132  1  0  0  0  0
 56 57  1  0  0  0  0
 56 64  1  0  0  0  0
 56133  1  6  0  0  0
 57 58  1  0  0  0  0
 57134  1  0  0  0  0
 57135  1  0  0  0  0
 58 59  1  0  0  0  0
 58 61  1  0  0  0  0
 58136  1  6  0  0  0
 59 60  1  0  0  0  0
 60137  1  0  0  0  0
 60138  1  0  0  0  0
 60139  1  0  0  0  0
 61 62  1  0  0  0  0
 61 63  1  0  0  0  0
 61140  1  1  0  0  0
 62141  1  0  0  0  0
 63 64  1  0  0  0  0
 63142  1  0  0  0  0
 63143  1  0  0  0  0
 64144  1  0  0  0  0
 64145  1  0  0  0  0
 65 66  2  0  0  0  0
 65 68  1  0  0  0  0
 65 69  1  0  0  0  0
 66 67  1  0  0  0  0
 66146  1  0  0  0  0
 67147  1  0  0  0  0
 68148  1  0  0  0  0
 68149  1  0  0  0  0
 68150  1  0  0  0  0
M  END
>  <COMPND>
    title: molecule 1

$$$$
4FR3_ligand0.pdb
 OpenBabel06042612053D

 79 82  0  0  1  0  0  0  0  0999 V2000
  -16.9920  -20.6650   -3.9490 C   0  0  2  0  0  0  0  0  0  0  0  0
  -16.4440  -20.3210   -2.6620 O   0  0  0  0  0  0  0  0  0  0  0  0
  -15.8650  -20.8220   -4.9930 C   0  0  2  0  0  0  0  0  0  0  0  0
  -15.1070  -21.9770   -4.6960 O   0  0  0  0  0  0  0  0  0  0  0  0
  -14.9580  -19.5740   -4.9790 C   0  0  1  0  0  0  0  0  0  0  0  0
  -14.0500  -19.6460   -6.0610 O   0  0  0  0  0  0  0  0  0  0  0  0
  -15.7500  -18.3060   -5.2500 C   0  0  2  0  0  0  0  0  0  0  0  0
  -15.0790  -17.0620   -4.9630 O   0  0  0  0  0  0  0  0  0  0  0  0
  -17.0820  -18.2780   -4.5260 C   0  0  2  0  0  0  0  0  0  0  0  0
  -17.7260  -19.5120   -4.3070 O   0  0  0  0  0  0  0  0  0  0  0  0
  -17.9960  -17.6720   -5.5720 C   0  0  0  0  0  0  0  0  0  0  0  0
  -18.5440  -16.6240   -4.8270 O   0  0  0  0  0  0  0  0  0  0  0  0
  -21.7520  -20.9210    4.1090 O   0  0  0  0  0  0  0  0  0  0  0  0
  -17.7190  -22.1620    0.5290 C   0  0  2  0  0  0  0  0  0  0  0  0
  -17.6160  -21.1040    1.6710 C   0  0  1  0  0  0  0  0  0  0  0  0
  -18.8270  -20.2010    1.8280 C   0  0  0  0  0  0  0  0  0  0  0  0
  -19.2270  -19.1970    1.0150 C   0  0  0  0  0  0  0  0  0  0  0  0
  -18.6970  -18.6450   -0.2840 C   0  0  2  0  0  0  0  0  0  0  0  0
  -17.3730  -19.2580   -0.7340 C   0  0  0  0  0  0  0  0  0  0  0  0
  -17.3120  -20.5600   -1.4970 C   0  0  2  0  0  0  0  0  0  0  0  0
  -16.8050  -21.7630   -0.6550 C   0  0  2  0  0  0  0  0  0  0  0  0
  -18.3120  -17.1670   -0.0890 C   0  0  0  0  0  0  0  0  0  0  0  0
  -16.8380  -17.2250    0.2980 C   0  0  0  0  0  0  0  0  0  0  0  0
  -16.3500  -18.4900   -0.3730 C   0  0  0  0  0  0  0  0  0  0  0  0
  -17.5280  -21.7730    3.0710 C   0  0  0  0  0  0  0  0  0  0  0  0
  -18.9750  -21.7980    3.6160 C   0  0  0  0  0  0  0  0  0  0  0  0
  -19.6260  -20.5210    3.0710 C   0  0  2  0  0  0  0  0  0  0  0  0
  -21.1500  -20.6850    2.7970 C   0  0  0  0  0  0  0  0  0  0  0  0
  -19.1780  -22.5230    0.0220 C   0  0  0  0  0  0  0  0  0  0  0  0
  -16.7120  -22.9030   -1.5360 O   0  0  0  0  0  0  0  0  0  0  0  0
  -14.8570  -18.7710   -0.5490 C   0  0  0  0  0  0  0  0  0  0  0  0
  -14.1900  -18.9220    0.8540 C   0  0  0  0  0  0  0  0  0  0  0  0
  -14.1550  -17.6090   -1.2950 C   0  0  0  0  0  0  0  0  0  0  0  0
  -19.8360  -18.7230   -1.3210 C   0  0  0  0  0  0  0  0  0  0  0  0
  -23.1760  -21.2740    4.0200 C   0  0  0  0  0  0  0  0  0  0  0  0
  -17.6760  -21.5170   -3.8640 H   0  0  0  0  0  0  0  0  0  0  0  0
  -16.3230  -20.9500   -5.9750 H   0  0  0  0  0  0  0  0  0  0  0  0
  -14.7040  -21.8810   -3.8170 H   0  0  0  0  0  0  0  0  0  0  0  0
  -14.4100  -19.4960   -4.0390 H   0  0  0  0  0  0  0  0  0  0  0  0
  -13.4760  -20.4130   -5.9180 H   0  0  0  0  0  0  0  0  0  0  0  0
  -15.9020  -18.3440   -6.3310 H   0  0  0  0  0  0  0  0  0  0  0  0
  -14.2780  -17.0220   -5.5070 H   0  0  0  0  0  0  0  0  0  0  0  0
  -17.0020  -17.7580   -3.5670 H   0  0  0  0  0  0  0  0  0  0  0  0
  -18.8530  -18.2270   -5.7740 H   0  0  0  0  0  0  0  0  0  0  0  0
  -17.5880  -17.2570   -6.4950 H   0  0  0  0  0  0  0  0  0  0  0  0
  -17.8530  -15.9640   -4.6680 H   0  0  0  0  0  0  0  0  0  0  0  0
  -17.2980  -23.0920    0.9110 H   0  0  0  0  0  0  0  0  0  0  0  0
  -16.7220  -20.4990    1.5560 H   0  0  0  0  0  0  0  0  0  0  0  0
  -20.1050  -18.6590    1.3330 H   0  0  0  0  0  0  0  0  0  0  0  0
  -18.3080  -20.7820   -1.8700 H   0  0  0  0  0  0  0  0  0  0  0  0
  -15.7960  -21.5720   -0.2870 H   0  0  0  0  0  0  0  0  0  0  0  0
  -18.9190  -16.6480    0.6530 H   0  0  0  0  0  0  0  0  0  0  0  0
  -18.4090  -16.6190   -1.0280 H   0  0  0  0  0  0  0  0  0  0  0  0
  -16.7070  -17.3090    1.3760 H   0  0  0  0  0  0  0  0  0  0  0  0
  -16.3120  -16.3350   -0.0460 H   0  0  0  0  0  0  0  0  0  0  0  0
  -16.9100  -21.1560    3.7250 H   0  0  0  0  0  0  0  0  0  0  0  0
  -17.0790  -22.7580    3.0500 H   0  0  0  0  0  0  0  0  0  0  0  0
  -19.0050  -21.8760    4.6970 H   0  0  0  0  0  0  0  0  0  0  0  0
  -19.4870  -22.6760    3.2210 H   0  0  0  0  0  0  0  0  0  0  0  0
  -19.4580  -19.7060    3.7770 H   0  0  0  0  0  0  0  0  0  0  0  0
  -21.6060  -19.8020    2.3520 H   0  0  0  0  0  0  0  0  0  0  0  0
  -21.3290  -21.5320    2.1380 H   0  0  0  0  0  0  0  0  0  0  0  0
  -19.1660  -23.3150   -0.7260 H   0  0  0  0  0  0  0  0  0  0  0  0
  -19.7830  -22.8840    0.8500 H   0  0  0  0  0  0  0  0  0  0  0  0
  -19.7030  -21.6720   -0.4030 H   0  0  0  0  0  0  0  0  0  0  0  0
  -15.8990  -22.8220   -2.0200 H   0  0  0  0  0  0  0  0  0  0  0  0
  -14.7010  -19.6940   -1.1050 H   0  0  0  0  0  0  0  0  0  0  0  0
  -13.1680  -19.2900    0.7630 H   0  0  0  0  0  0  0  0  0  0  0  0
  -14.1550  -17.9720    1.3870 H   0  0  0  0  0  0  0  0  0  0  0  0
  -14.7310  -19.6230    1.4820 H   0  0  0  0  0  0  0  0  0  0  0  0
  -13.1220  -17.8680   -1.5270 H   0  0  0  0  0  0  0  0  0  0  0  0
  -14.6560  -17.3970   -2.2390 H   0  0  0  0  0  0  0  0  0  0  0  0
  -14.1390  -16.6900   -0.7100 H   0  0  0  0  0  0  0  0  0  0  0  0
  -19.5120  -18.3720   -2.3020 H   0  0  0  0  0  0  0  0  0  0  0  0
  -20.2170  -19.7340   -1.4410 H   0  0  0  0  0  0  0  0  0  0  0  0
  -20.6840  -18.1120   -1.0160 H   0  0  0  0  0  0  0  0  0  0  0  0
  -23.5950  -21.3590    5.0220 H   0  0  0  0  0  0  0  0  0  0  0  0
  -23.7300  -20.5080    3.4760 H   0  0  0  0  0  0  0  0  0  0  0  0
  -23.3070  -22.2300    3.5140 H   0  0  0  0  0  0  0  0  0  0  0  0
  1  2  1  0  0  0  0
  1  3  1  0  0  0  0
  1 10  1  0  0  0  0
  1 36  1  1  0  0  0
  2 20  1  0  0  0  0
  3  4  1  0  0  0  0
  3  5  1  0  0  0  0
  3 37  1  6  0  0  0
  4 38  1  0  0  0  0
  5  6  1  0  0  0  0
  5  7  1  0  0  0  0
  5 39  1  1  0  0  0
  6 40  1  0  0  0  0
  7  8  1  0  0  0  0
  7  9  1  0  0  0  0
  7 41  1  6  0  0  0
  8 42  1  0  0  0  0
  9 10  1  0  0  0  0
  9 11  1  0  0  0  0
  9 43  1  1  0  0  0
 11 12  1  0  0  0  0
 11 44  1  0  0  0  0
 11 45  1  0  0  0  0
 12 46  1  0  0  0  0
 13 28  1  0  0  0  0
 13 35  1  0  0  0  0
 14 15  1  0  0  0  0
 14 21  1  0  0  0  0
 14 29  1  0  0  0  0
 14 47  1  1  0  0  0
 15 16  1  0  0  0  0
 15 25  1  0  0  0  0
 15 48  1  6  0  0  0
 16 17  2  0  0  0  0
 16 27  1  0  0  0  0
 17 18  1  0  0  0  0
 17 49  1  0  0  0  0
 18 19  1  0  0  0  0
 18 22  1  0  0  0  0
 18 34  1  6  0  0  0
 19 20  1  0  0  0  0
 19 24  2  0  0  0  0
 20 21  1  0  0  0  0
 20 50  1  6  0  0  0
 21 30  1  0  0  0  0
 21 51  1  1  0  0  0
 22 23  1  0  0  0  0
 22 52  1  0  0  0  0
 22 53  1  0  0  0  0
 23 24  1  0  0  0  0
 23 54  1  0  0  0  0
 23 55  1  0  0  0  0
 24 31  1  0  0  0  0
 25 26  1  0  0  0  0
 25 56  1  0  0  0  0
 25 57  1  0  0  0  0
 26 27  1  0  0  0  0
 26 58  1  0  0  0  0
 26 59  1  0  0  0  0
 27 28  1  0  0  0  0
 27 60  1  1  0  0  0
 28 61  1  0  0  0  0
 28 62  1  0  0  0  0
 29 63  1  0  0  0  0
 29 64  1  0  0  0  0
 29 65  1  0  0  0  0
 30 66  1  0  0  0  0
 31 32  1  0  0  0  0
 31 33  1  0  0  0  0
 31 67  1  0  0  0  0
 32 68  1  0  0  0  0
 32 69  1  0  0  0  0
 32 70  1  0  0  0  0
 33 71  1  0  0  0  0
 33 72  1  0  0  0  0
 33 73  1  0  0  0  0
 34 74  1  0  0  0  0
 34 75  1  0  0  0  0
 34 76  1  0  0  0  0
 35 77  1  0  0  0  0
 35 78  1  0  0  0  0
 35 79  1  0  0  0  0
M  END
>  <COMPND>
    title: molecule 1

$$$$
4G27_ligand0.pdb
 OpenBabel06042612053D

 18 18  0  0  0  0  0  0  0  0999 V2000
   36.2130   52.5100   49.5320 C   0  0  0  0  0  0  0  0  0  0  0  0
   34.7770   50.8660   50.7240 C   0  0  0  0  0  0  0  0  0  0  0  0
   33.7050   51.7240   50.9290 C   0  0  0  0  0  0  0  0  0  0  0  0
   34.7950   49.6250   51.3470 C   0  0  0  0  0  0  0  0  0  0  0  0
   33.7460   49.2530   52.1710 C   0  0  0  0  0  0  0  0  0  0  0  0
   32.6590   51.3370   51.7520 C   0  0  0  0  0  0  0  0  0  0  0  0
   32.6810   50.1050   52.3730 C   0  0  0  0  0  0  0  0  0  0  0  0
   35.8990   51.2510   49.9550 N   0  0  0  0  0  0  0  0  0  0  0  0
   37.3660   52.6120   48.8740 N   0  0  0  0  0  0  0  0  0  0  0  0
   35.4750   53.4790   49.7520 O   0  0  0  0  0  0  0  0  0  0  0  0
   33.5550   52.6790   50.4620 H   0  0  0  0  0  0  0  0  0  0  0  0
   35.5430   48.9350   51.0140 H   0  0  0  0  0  0  0  0  0  0  0  0
   33.7430   48.2700   52.6170 H   0  0  0  0  0  0  0  0  0  0  0  0
   31.8170   51.9980   51.8960 H   0  0  0  0  0  0  0  0  0  0  0  0
   31.8570   49.7980   53.0000 H   0  0  0  0  0  0  0  0  0  0  0  0
   36.5790   50.5260   49.7690 H   0  0  0  0  0  0  0  0  0  0  0  0
   37.6640   53.5120   48.5280 H   0  0  0  0  0  0  0  0  0  0  0  0
   37.9440   51.7940   48.7390 H   0  0  0  0  0  0  0  0  0  0  0  0
  1  8  1  0  0  0  0
  1  9  1  0  0  0  0
  1 10  2  0  0  0  0
  2  3  2  0  0  0  0
  2  4  1  0  0  0  0
  2  8  1  0  0  0  0
  3  6  1  0  0  0  0
  3 11  1  0  0  0  0
  4  5  2  0  0  0  0
  4 12  1  0  0  0  0
  5  7  1  0  0  0  0
  5 13  1  0  0  0  0
  6  7  2  0  0  0  0
  6 14  1  0  0  0  0
  7 15  1  0  0  0  0
  8 16  1  0  0  0  0
  9 17  1  0  0  0  0
  9 18  1  0  0  0  0
M  END
>  <COMPND>
    title: molecule 1

$$$$
4G28_ligand0.pdb
 OpenBabel06042612053D

 22 23  0  0  0  0  0  0  0  0999 V2000
   34.9510   54.5610   50.0780 O   0  0  0  0  0  0  0  0  0  0  0  0
   34.7180   53.3740   50.2300 C   0  0  0  0  0  0  0  0  0  0  0  0
   33.6950   52.8330   51.0560 N   0  0  0  0  0  0  0  0  0  0  0  0
   32.7400   53.5430   51.9200 C   0  0  0  0  0  0  0  0  0  0  0  0
   33.2830   53.6440   53.3330 C   0  0  0  0  0  0  0  0  0  0  0  0
   35.3920   52.3080   49.7030 N   0  0  0  0  0  0  0  0  0  0  0  0
   34.8600   51.1200   50.1650 C   0  0  0  0  0  0  0  0  0  0  0  0
   33.7930   51.4400   50.9980 C   0  0  0  0  0  0  0  0  0  0  0  0
   35.2430   49.7970   49.9850 C   0  0  0  0  0  0  0  0  0  0  0  0
   34.5340   48.8100   50.6550 C   0  0  0  0  0  0  0  0  0  0  0  0
   33.4620   49.1340   51.4800 C   0  0  0  0  0  0  0  0  0  0  0  0
   33.0740   50.4560   51.6590 C   0  0  0  0  0  0  0  0  0  0  0  0
   31.7930   53.0020   51.9210 H   0  0  0  0  0  0  0  0  0  0  0  0
   32.5230   54.5310   51.5190 H   0  0  0  0  0  0  0  0  0  0  0  0
   32.4790   53.8290   54.0430 H   0  0  0  0  0  0  0  0  0  0  0  0
   33.7740   52.7230   53.6480 H   0  0  0  0  0  0  0  0  0  0  0  0
   33.9950   54.4540   53.4340 H   0  0  0  0  0  0  0  0  0  0  0  0
   36.1980   52.3590   49.0980 H   0  0  0  0  0  0  0  0  0  0  0  0
   36.0720   49.5360   49.3520 H   0  0  0  0  0  0  0  0  0  0  0  0
   34.7670   47.7760   50.4640 H   0  0  0  0  0  0  0  0  0  0  0  0
   32.9130   48.3460   51.9730 H   0  0  0  0  0  0  0  0  0  0  0  0
   32.2480   50.7040   52.3050 H   0  0  0  0  0  0  0  0  0  0  0  0
  1  2  2  0  0  0  0
  2  3  1  0  0  0  0
  2  6  1  0  0  0  0
  3  4  1  0  0  0  0
  3  8  1  0  0  0  0
  4  5  1  0  0  0  0
  4 13  1  0  0  0  0
  4 14  1  0  0  0  0
  5 15  1  0  0  0  0
  5 16  1  0  0  0  0
  5 17  1  0  0  0  0
  6  7  1  0  0  0  0
  6 18  1  0  0  0  0
  7  8  2  0  0  0  0
  7  9  1  0  0  0  0
  8 12  1  0  0  0  0
  9 10  2  0  0  0  0
  9 19  1  0  0  0  0
 10 11  1  0  0  0  0
 10 20  1  0  0  0  0
 11 12  2  0  0  0  0
 11 21  1  0  0  0  0
 12 22  1  0  0  0  0
M  END
>  <COMPND>
    title: molecule 1

$$$$
4IHL_ligand0.pdb
 OpenBabel06042612053D

 94100  0  0  1  0  0  0  0  0999 V2000
   15.7220   15.0570   16.8590 C   0  0  0  0  0  0  0  0  0  0  0  0
   16.9950   14.8620   16.2050 O   0  0  0  0  0  0  0  0  0  0  0  0
   16.9150   14.5220   17.6150 C   0  0  2  0  0  0  0  0  0  0  0  0
   16.9000   12.9880   17.9140 C   0  0  2  0  0  0  0  0  0  0  0  0
   18.2450   12.3980   17.5160 C   0  0  0  0  0  0  0  0  0  0  0  0
   15.8600   12.2660   17.2050 O   0  0  0  0  0  0  0  0  0  0  0  0
   15.0360   11.6760   18.2890 C   0  0  1  0  0  0  0  0  0  0  0  0
   14.2070   10.5160   17.7970 C   0  0  2  0  0  0  0  0  0  0  0  0
   13.2640   10.0550   18.7850 O   0  0  0  0  0  0  0  0  0  0  0  0
   15.1430    9.3740   17.3650 C   0  0  0  0  0  0  0  0  0  0  0  0
   15.4570    8.5430   18.4710 O   0  0  0  0  0  0  0  0  0  0  0  0
   15.7520    7.1980   18.0740 C   0  0  0  0  0  0  0  0  0  0  0  0
   15.9630   11.3440   19.2880 O   0  0  0  0  0  0  0  0  0  0  0  0
   16.5200   12.6850   19.3680 C   0  0  2  0  0  0  0  0  0  0  0  0
   15.3380   13.4700   19.7030 O   0  0  0  0  0  0  0  0  0  0  0  0
   14.2580   12.7420   19.0160 C   0  0  2  0  0  0  0  0  0  0  0  0
   13.3630   12.1390   20.0500 C   0  0  1  0  0  0  0  0  0  0  0  0
   12.6620   13.2510   20.5790 O   0  0  0  0  0  0  0  0  0  0  0  0
   12.4510   11.0910   19.3890 C   0  0  1  0  0  0  0  0  0  0  0  0
   11.6130   11.7210   18.3520 O   0  0  0  0  0  0  0  0  0  0  0  0
   10.5710   10.8820   17.8140 C   0  0  1  0  0  0  0  0  0  0  0  0
    9.2450   11.6510   18.1150 C   0  0  2  0  0  0  0  0  0  0  0  0
    9.2650   12.1910   19.4320 O   0  0  0  0  0  0  0  0  0  0  0  0
    7.9490   10.8460   17.8920 C   0  0  2  0  0  0  0  0  0  0  0  0
    7.9170    9.5120   18.6450 C   0  0  0  0  0  0  0  0  0  0  0  0
   10.7700   10.7440   16.3990 C   0  0  0  0  0  0  0  0  0  0  0  0
   11.0210   11.6850   15.4520 C   0  0  0  0  0  0  0  0  0  0  0  0
   11.2160   13.2130   15.6720 C   0  0  0  0  0  0  0  0  0  0  0  0
   10.0820   13.9770   14.9600 C   0  0  0  0  0  0  0  0  0  0  0  0
   12.6100   13.7210   15.1540 C   0  0  0  0  0  0  0  0  0  0  0  0
   11.1160   11.1310   14.1470 C   0  0  0  0  0  0  0  0  0  0  0  0
   11.3260    9.6290   14.4410 C   0  0  0  0  0  0  0  0  0  0  0  0
   10.6330    9.4390   15.7530 C   0  0  1  0  0  0  0  0  0  0  0  0
   11.4210    8.2680   16.4050 C   0  0  0  0  0  0  0  0  0  0  0  0
    9.2530    8.9770   15.5010 C   0  0  0  0  0  0  0  0  0  0  0  0
    7.9780    9.4420   15.7350 C   0  0  0  0  0  0  0  0  0  0  0  0
    7.6460   10.7300   16.3360 C   0  0  1  0  0  0  0  0  0  0  0  0
    6.1070   10.9810   16.2010 C   0  0  0  0  0  0  0  0  0  0  0  0
    5.5430    9.5750   15.9860 C   0  0  0  0  0  0  0  0  0  0  0  0
    6.7270    8.8490   15.2950 C   0  0  1  0  0  0  0  0  0  0  0  0
    6.5690    9.0390   13.8900 O   0  0  0  0  0  0  0  0  0  0  0  0
    6.6800    7.3520   15.5530 C   0  0  0  0  0  0  0  0  0  0  0  0
    5.4940    6.8040   14.9610 O   0  0  0  0  0  0  0  0  0  0  0  0
    5.1500    5.5160   15.4680 C   0  0  0  0  0  0  0  0  0  0  0  0
   14.9440   14.3920   16.5100 H   0  0  0  0  0  0  0  0  0  0  0  0
   15.4410   16.1010   16.9480 H   0  0  0  0  0  0  0  0  0  0  0  0
   17.4870   15.1750   18.2700 H   0  0  0  0  0  0  0  0  0  0  0  0
   18.2660   11.3190   17.6740 H   0  0  0  0  0  0  0  0  0  0  0  0
   18.4650   12.5810   16.4650 H   0  0  0  0  0  0  0  0  0  0  0  0
   19.0550   12.8340   18.1020 H   0  0  0  0  0  0  0  0  0  0  0  0
   13.6520   10.8740   16.9300 H   0  0  0  0  0  0  0  0  0  0  0  0
   16.0620    9.7250   16.8940 H   0  0  0  0  0  0  0  0  0  0  0  0
   14.6140    8.7740   16.6260 H   0  0  0  0  0  0  0  0  0  0  0  0
   15.9630    6.5930   18.9560 H   0  0  0  0  0  0  0  0  0  0  0  0
   14.9210    6.7370   17.5420 H   0  0  0  0  0  0  0  0  0  0  0  0
   16.6260    7.1660   17.4240 H   0  0  0  0  0  0  0  0  0  0  0  0
   17.3240   12.8040   20.0950 H   0  0  0  0  0  0  0  0  0  0  0  0
   13.7210   13.3670   18.3000 H   0  0  0  0  0  0  0  0  0  0  0  0
   13.9310   11.6530   20.8450 H   0  0  0  0  0  0  0  0  0  0  0  0
   12.0600   13.5980   19.9240 H   0  0  0  0  0  0  0  0  0  0  0  0
   11.7950   10.6480   20.1370 H   0  0  0  0  0  0  0  0  0  0  0  0
   10.5880    9.9190   18.3200 H   0  0  0  0  0  0  0  0  0  0  0  0
    9.1930   12.5440   17.4950 H   0  0  0  0  0  0  0  0  0  0  0  0
    9.9230   12.8760   19.4600 H   0  0  0  0  0  0  0  0  0  0  0  0
    7.1830   11.4630   18.3600 H   0  0  0  0  0  0  0  0  0  0  0  0
    6.9540    9.0180   18.5440 H   0  0  0  0  0  0  0  0  0  0  0  0
    8.6730    8.8130   18.2940 H   0  0  0  0  0  0  0  0  0  0  0  0
    8.0880    9.6620   19.7110 H   0  0  0  0  0  0  0  0  0  0  0  0
   11.1580   13.4380   16.7320 H   0  0  0  0  0  0  0  0  0  0  0  0
   10.1610   15.0490   15.1470 H   0  0  0  0  0  0  0  0  0  0  0  0
   10.1090   13.8290   13.8800 H   0  0  0  0  0  0  0  0  0  0  0  0
    9.1030   13.6590   15.3170 H   0  0  0  0  0  0  0  0  0  0  0  0
   12.7510   14.7760   15.3920 H   0  0  0  0  0  0  0  0  0  0  0  0
   13.3980   13.1610   15.6470 H   0  0  0  0  0  0  0  0  0  0  0  0
   12.7240   13.6060   14.0760 H   0  0  0  0  0  0  0  0  0  0  0  0
   11.9340   11.5420   13.5580 H   0  0  0  0  0  0  0  0  0  0  0  0
   10.1840   11.3070   13.6080 H   0  0  0  0  0  0  0  0  0  0  0  0
   12.3890    9.4150   14.5290 H   0  0  0  0  0  0  0  0  0  0  0  0
   10.9500    9.0020   13.6320 H   0  0  0  0  0  0  0  0  0  0  0  0
   11.4790    7.3990   15.7480 H   0  0  0  0  0  0  0  0  0  0  0  0
   12.4350    8.5530   16.6680 H   0  0  0  0  0  0  0  0  0  0  0  0
   10.9380    7.9280   17.3200 H   0  0  0  0  0  0  0  0  0  0  0  0
    9.2810    8.0370   14.9710 H   0  0  0  0  0  0  0  0  0  0  0  0
    8.1490   11.5200   15.7800 H   0  0  0  0  0  0  0  0  0  0  0  0
    5.9220   11.5730   15.3030 H   0  0  0  0  0  0  0  0  0  0  0  0
    5.6220   11.5050   17.0200 H   0  0  0  0  0  0  0  0  0  0  0  0
    4.6100    9.5720   15.4360 H   0  0  0  0  0  0  0  0  0  0  0  0
    5.3320    9.1220   16.9540 H   0  0  0  0  0  0  0  0  0  0  0  0
    7.3470    8.7370   13.4430 H   0  0  0  0  0  0  0  0  0  0  0  0
    6.6800    7.1800   16.6260 H   0  0  0  0  0  0  0  0  0  0  0  0
    7.5330    6.8170   15.1360 H   0  0  0  0  0  0  0  0  0  0  0  0
    4.3040    5.1200   14.9060 H   0  0  0  0  0  0  0  0  0  0  0  0
    5.9950    4.8340   15.3690 H   0  0  0  0  0  0  0  0  0  0  0  0
    4.8650    5.5780   16.5180 H   0  0  0  0  0  0  0  0  0  0  0  0
  1  2  1  0  0  0  0
  1  3  1  0  0  0  0
  1 45  1  0  0  0  0
  1 46  1  0  0  0  0
  2  3  1  0  0  0  0
  3  4  1  0  0  0  0
  3 47  1  1  0  0  0
  4  5  1  6  0  0  0
  4  6  1  0  0  0  0
  4 14  1  0  0  0  0
  5 48  1  0  0  0  0
  5 49  1  0  0  0  0
  5 50  1  0  0  0  0
  7  6  1  6  0  0  0
  7  8  1  0  0  0  0
  7 13  1  0  0  0  0
  7 16  1  0  0  0  0
  8  9  1  0  0  0  0
  8 10  1  0  0  0  0
  8 51  1  6  0  0  0
  9 19  1  0  0  0  0
 10 11  1  0  0  0  0
 10 52  1  0  0  0  0
 10 53  1  0  0  0  0
 11 12  1  0  0  0  0
 12 54  1  0  0  0  0
 12 55  1  0  0  0  0
 12 56  1  0  0  0  0
 13 14  1  0  0  0  0
 14 15  1  0  0  0  0
 14 57  1  1  0  0  0
 15 16  1  0  0  0  0
 16 17  1  0  0  0  0
 16 58  1  6  0  0  0
 17 18  1  0  0  0  0
 17 19  1  0  0  0  0
 17 59  1  1  0  0  0
 18 60  1  0  0  0  0
 19 20  1  0  0  0  0
 19 61  1  1  0  0  0
 20 21  1  0  0  0  0
 21 22  1  0  0  0  0
 21 26  1  0  0  0  0
 21 62  1  1  0  0  0
 22 23  1  0  0  0  0
 22 24  1  0  0  0  0
 22 63  1  6  0  0  0
 23 64  1  0  0  0  0
 24 25  1  0  0  0  0
 24 37  1  0  0  0  0
 24 65  1  1  0  0  0
 25 66  1  0  0  0  0
 25 67  1  0  0  0  0
 25 68  1  0  0  0  0
 26 27  2  0  0  0  0
 26 33  1  0  0  0  0
 27 28  1  0  0  0  0
 27 31  1  0  0  0  0
 28 29  1  0  0  0  0
 28 30  1  0  0  0  0
 28 69  1  0  0  0  0
 29 70  1  0  0  0  0
 29 71  1  0  0  0  0
 29 72  1  0  0  0  0
 30 73  1  0  0  0  0
 30 74  1  0  0  0  0
 30 75  1  0  0  0  0
 31 32  1  0  0  0  0
 31 76  1  0  0  0  0
 31 77  1  0  0  0  0
 32 33  1  0  0  0  0
 32 78  1  0  0  0  0
 32 79  1  0  0  0  0
 33 34  1  1  0  0  0
 33 35  1  0  0  0  0
 34 80  1  0  0  0  0
 34 81  1  0  0  0  0
 34 82  1  0  0  0  0
 35 36  2  0  0  0  0
 35 83  1  0  0  0  0
 36 37  1  0  0  0  0
 36 40  1  0  0  0  0
 37 38  1  0  0  0  0
 37 84  1  6  0  0  0
 38 39  1  0  0  0  0
 38 85  1  0  0  0  0
 38 86  1  0  0  0  0
 39 40  1  0  0  0  0
 39 87  1  0  0  0  0
 39 88  1  0  0  0  0
 40 41  1  6  0  0  0
 40 42  1  0  0  0  0
 41 89  1  0  0  0  0
 42 43  1  0  0  0  0
 42 90  1  0  0  0  0
 42 91  1  0  0  0  0
 43 44  1  0  0  0  0
 44 92  1  0  0  0  0
 44 93  1  0  0  0  0
 44 94  1  0  0  0  0
M  END
>  <COMPND>
    title: molecule 1

$$$$
4J9Z_ligand0.pdb
 OpenBabel06042612053D

 18 19  0  0  0  0  0  0  0  0999 V2000
   32.6800   49.3810   51.7710 Cl  0  0  0  0  0  0  0  0  0  0  0  0
   33.6820   50.7260   51.2130 C   0  0  0  0  0  0  0  0  0  0  0  0
   33.3400   52.0310   51.5330 C   0  0  0  0  0  0  0  0  0  0  0  0
   34.1460   53.0960   51.0970 C   0  0  0  0  0  0  0  0  0  0  0  0
   34.8150   50.4770   50.4620 C   0  0  0  0  0  0  0  0  0  0  0  0
   35.2510   48.9050   50.0400 Cl  0  0  0  0  0  0  0  0  0  0  0  0
   35.6440   51.5670   50.0090 C   0  0  0  0  0  0  0  0  0  0  0  0
   35.3260   52.8310   50.3120 C   0  0  0  0  0  0  0  0  0  0  0  0
   36.8340   51.5560   49.2410 N   0  0  0  0  0  0  0  0  0  0  0  0
   37.2660   52.8290   49.0620 C   0  0  0  0  0  0  0  0  0  0  0  0
   38.4060   53.2300   48.3420 O   0  0  0  0  0  0  0  0  0  0  0  0
   36.3960   53.6740   49.6870 C   0  0  0  0  0  0  0  0  0  0  0  0
   36.5030   55.1140   49.7290 N   0  0  0  0  0  0  0  0  0  0  0  0
   35.4210   55.8460   49.5330 O   0  0  0  0  0  0  0  0  0  0  0  0
   32.4120   52.2320   52.0480 H   0  0  0  0  0  0  0  0  0  0  0  0
   33.4340   54.0220   51.1070 H   0  0  0  0  0  0  0  0  0  0  0  0
   37.3090   50.7140   48.9450 H   0  0  0  0  0  0  0  0  0  0  0  0
   34.7420   55.1970   49.5220 H   0  0  0  0  0  0  0  0  0  0  0  0
  1  2  1  0  0  0  0
  2  3  2  0  0  0  0
  2  5  1  0  0  0  0
  3  4  1  0  0  0  0
  3 15  1  0  0  0  0
  4  8  2  0  0  0  0
  4 16  1  0  0  0  0
  5  6  1  0  0  0  0
  5  7  2  0  0  0  0
  7  8  1  0  0  0  0
  7  9  1  0  0  0  0
  8 12  1  0  0  0  0
  9 10  1  0  0  0  0
  9 17  1  0  0  0  0
 10 11  2  0  0  0  0
 10 12  1  0  0  0  0
 12 13  2  0  0  0  0
 13 14  1  0  0  0  0
 14 18  1  0  0  0  0
M  END
>  <COMPND>
    title: molecule 1

$$$$
4JDD_ligand0.pdb
 OpenBabel06042612053D

104107  0  0  1  0  0  0  0  0999 V2000
  -17.6870  -19.1700   -0.7390 C   0  0  0  0  0  0  0  0  0  0  0  0
  -16.6480  -18.4230   -0.2320 C   0  0  0  0  0  0  0  0  0  0  0  0
  -15.1690  -18.7850   -0.4340 C   0  0  2  0  0  0  0  0  0  0  0  0
  -14.4890  -19.1240    0.8920 C   0  0  0  0  0  0  0  0  0  0  0  0
  -14.4560  -17.6260   -1.1400 C   0  0  0  0  0  0  0  0  0  0  0  0
  -13.2670  -18.2580   -1.6890 O   0  0  0  0  0  0  0  0  0  0  0  0
  -12.4680  -17.5150   -2.5060 C   0  0  0  0  0  0  0  0  0  0  0  0
  -12.8560  -16.3860   -2.8450 O   0  0  0  0  0  0  0  0  0  0  0  0
  -11.0690  -18.0870   -2.9160 C   0  0  0  0  0  0  0  0  0  0  0  0
  -17.1830  -17.1770    0.5270 C   0  0  0  0  0  0  0  0  0  0  0  0
  -18.5680  -17.0450   -0.1710 C   0  0  2  0  0  0  0  0  0  0  0  0
  -19.4440  -16.2610    0.6160 O   0  0  0  0  0  0  0  0  0  0  0  0
  -19.0170  -18.5110   -0.2900 C   0  0  1  0  0  0  0  0  0  0  0  0
  -20.1710  -18.6930   -1.3160 C   0  0  0  0  0  0  0  0  0  0  0  0
  -19.4960  -19.0100    0.9280 C   0  0  0  0  0  0  0  0  0  0  0  0
  -19.1570  -20.0550    1.8080 C   0  0  0  0  0  0  0  0  0  0  0  0
  -19.8910  -20.3680    3.1480 C   0  0  1  0  0  0  0  0  0  0  0  0
  -21.4070  -20.4350    2.9010 C   0  0  0  0  0  0  0  0  0  0  0  0
  -22.0600  -20.9170    4.0910 O   0  0  0  0  0  0  0  0  0  0  0  0
  -23.4760  -21.1450    3.9600 C   0  0  0  0  0  0  0  0  0  0  0  0
  -19.3550  -21.7210    3.6210 C   0  0  0  0  0  0  0  0  0  0  0  0
  -17.8890  -21.7600    3.0980 C   0  0  0  0  0  0  0  0  0  0  0  0
  -17.9390  -21.0510    1.7050 C   0  0  1  0  0  0  0  0  0  0  0  0
  -18.0130  -22.0790    0.5200 C   0  0  1  0  0  0  0  0  0  0  0  0
  -19.5320  -22.3880    0.0070 C   0  0  0  0  0  0  0  0  0  0  0  0
  -17.0990  -21.6630   -0.6600 C   0  0  1  0  0  0  0  0  0  0  0  0
  -17.0230  -22.7480   -1.5810 O   0  0  0  0  0  0  0  0  0  0  0  0
  -17.7160  -20.5120   -1.5120 C   0  0  2  0  0  0  0  0  0  0  0  0
  -16.9100  -20.2990   -2.6300 O   0  0  0  0  0  0  0  0  0  0  0  0
  -17.5840  -20.4630   -3.8870 C   0  0  1  0  0  0  0  0  0  0  0  0
  -18.2420  -19.2630   -4.3290 O   0  0  0  0  0  0  0  0  0  0  0  0
  -17.4660  -18.0570   -4.2460 C   0  0  1  0  0  0  0  0  0  0  0  0
  -16.2530  -18.2060   -5.1790 C   0  0  1  0  0  0  0  0  0  0  0  0
  -15.4230  -17.0330   -5.0570 O   0  0  0  0  0  0  0  0  0  0  0  0
  -15.4650  -19.5020   -4.9000 C   0  0  2  0  0  0  0  0  0  0  0  0
  -14.6510  -19.6180   -6.0770 O   0  0  0  0  0  0  0  0  0  0  0  0
  -13.3410  -19.8440   -5.8430 C   0  0  0  0  0  0  0  0  0  0  0  0
  -12.9570  -20.1620   -4.6960 O   0  0  0  0  0  0  0  0  0  0  0  0
  -12.3840  -19.6880   -7.0570 C   0  0  0  0  0  0  0  0  0  0  0  0
  -16.4480  -20.6740   -4.8850 C   0  0  1  0  0  0  0  0  0  0  0  0
  -15.8540  -21.9410   -4.6360 O   0  0  0  0  0  0  0  0  0  0  0  0
  -18.4270  -16.9010   -4.5830 C   0  0  0  0  0  0  0  0  0  0  0  0
  -18.8200  -17.1490   -5.9590 O   0  0  0  0  0  0  0  0  0  0  0  0
  -19.3340  -16.0090   -6.7290 C   0  0  0  0  0  0  0  0  0  0  0  0
  -19.1290  -16.3070   -8.2140 C   0  0  0  0  0  0  0  0  0  0  0  0
  -18.6430  -14.6520   -6.3850 C   0  0  0  0  0  0  0  0  0  0  0  0
  -20.7330  -16.0130   -6.5400 C   0  0  0  0  0  0  0  0  0  0  0  0
  -21.3510  -15.3750   -5.4730 C   0  0  0  0  0  0  0  0  0  0  0  0
  -15.1210  -19.6500   -1.0860 H   0  0  0  0  0  0  0  0  0  0  0  0
  -13.4580  -19.4440    0.7420 H   0  0  0  0  0  0  0  0  0  0  0  0
  -14.4720  -18.2620    1.5580 H   0  0  0  0  0  0  0  0  0  0  0  0
  -15.0050  -19.9270    1.3970 H   0  0  0  0  0  0  0  0  0  0  0  0
  -14.2120  -16.8110   -0.4570 H   0  0  0  0  0  0  0  0  0  0  0  0
  -15.0760  -17.2320   -1.9470 H   0  0  0  0  0  0  0  0  0  0  0  0
  -10.6710  -17.5450   -3.7740 H   0  0  0  0  0  0  0  0  0  0  0  0
  -10.3670  -17.9950   -2.0880 H   0  0  0  0  0  0  0  0  0  0  0  0
  -11.1520  -19.1400   -3.1800 H   0  0  0  0  0  0  0  0  0  0  0  0
  -16.5630  -16.2930    0.3800 H   0  0  0  0  0  0  0  0  0  0  0  0
  -17.2880  -17.3820    1.5740 H   0  0  0  0  0  0  0  0  0  0  0  0
  -18.4590  -16.5930   -1.1590 H   0  0  0  0  0  0  0  0  0  0  0  0
  -20.3410  -16.4650    0.3900 H   0  0  0  0  0  0  0  0  0  0  0  0
  -21.0390  -18.0990   -1.0390 H   0  0  0  0  0  0  0  0  0  0  0  0
  -19.8710  -18.3920   -2.3180 H   0  0  0  0  0  0  0  0  0  0  0  0
  -20.5340  -19.7120   -1.3730 H   0  0  0  0  0  0  0  0  0  0  0  0
  -20.3660  -18.4670    1.2590 H   0  0  0  0  0  0  0  0  0  0  0  0
  -19.6680  -19.5840    3.8670 H   0  0  0  0  0  0  0  0  0  0  0  0
  -21.6180  -21.1190    2.0790 H   0  0  0  0  0  0  0  0  0  0  0  0
  -21.8190  -19.4670    2.6220 H   0  0  0  0  0  0  0  0  0  0  0  0
  -23.9010  -21.3490    4.9420 H   0  0  0  0  0  0  0  0  0  0  0  0
  -23.9770  -20.2730    3.5390 H   0  0  0  0  0  0  0  0  0  0  0  0
  -23.6650  -22.0080    3.3260 H   0  0  0  0  0  0  0  0  0  0  0  0
  -19.9110  -22.5280    3.1420 H   0  0  0  0  0  0  0  0  0  0  0  0
  -19.4110  -21.9120    4.6820 H   0  0  0  0  0  0  0  0  0  0  0  0
  -17.5290  -22.7770    3.0340 H   0  0  0  0  0  0  0  0  0  0  0  0
  -17.2150  -21.2250    3.7590 H   0  0  0  0  0  0  0  0  0  0  0  0
  -17.0320  -20.4630    1.6260 H   0  0  0  0  0  0  0  0  0  0  0  0
  -17.6080  -23.0270    0.8740 H   0  0  0  0  0  0  0  0  0  0  0  0
  -19.5420  -23.0730   -0.8400 H   0  0  0  0  0  0  0  0  0  0  0  0
  -20.1050  -22.8610    0.8020 H   0  0  0  0  0  0  0  0  0  0  0  0
  -20.0850  -21.5000   -0.2740 H   0  0  0  0  0  0  0  0  0  0  0  0
  -16.0960  -21.4490   -0.3030 H   0  0  0  0  0  0  0  0  0  0  0  0
  -16.1280  -22.8340   -1.9070 H   0  0  0  0  0  0  0  0  0  0  0  0
  -18.7230  -20.7640   -1.8290 H   0  0  0  0  0  0  0  0  0  0  0  0
  -18.2730  -21.3090   -3.8940 H   0  0  0  0  0  0  0  0  0  0  0  0
  -17.1230  -17.9130   -3.2210 H   0  0  0  0  0  0  0  0  0  0  0  0
  -16.6150  -18.2380   -6.2080 H   0  0  0  0  0  0  0  0  0  0  0  0
  -14.7030  -17.1120   -5.6640 H   0  0  0  0  0  0  0  0  0  0  0  0
  -14.9490  -19.4040   -3.9440 H   0  0  0  0  0  0  0  0  0  0  0  0
  -11.3540  -19.8760   -6.7550 H   0  0  0  0  0  0  0  0  0  0  0  0
  -12.6510  -20.3960   -7.8410 H   0  0  0  0  0  0  0  0  0  0  0  0
  -12.4490  -18.6780   -7.4620 H   0  0  0  0  0  0  0  0  0  0  0  0
  -16.9140  -20.7520   -5.8690 H   0  0  0  0  0  0  0  0  0  0  0  0
  -15.5050  -21.9640   -3.7550 H   0  0  0  0  0  0  0  0  0  0  0  0
  -17.8710  -15.9800   -4.4300 H   0  0  0  0  0  0  0  0  0  0  0  0
  -19.2990  -16.8800   -3.9300 H   0  0  0  0  0  0  0  0  0  0  0  0
  -19.5610  -15.5300   -8.8480 H   0  0  0  0  0  0  0  0  0  0  0  0
  -18.0660  -16.3640   -8.4500 H   0  0  0  0  0  0  0  0  0  0  0  0
  -19.5700  -17.2620   -8.5050 H   0  0  0  0  0  0  0  0  0  0  0  0
  -19.0010  -13.8620   -7.0470 H   0  0  0  0  0  0  0  0  0  0  0  0
  -18.8130  -14.2960   -5.3700 H   0  0  0  0  0  0  0  0  0  0  0  0
  -17.5640  -14.7220   -6.5290 H   0  0  0  0  0  0  0  0  0  0  0  0
  -21.3520  -16.5420   -7.2490 H   0  0  0  0  0  0  0  0  0  0  0  0
  -22.4190  -15.4080   -5.3350 H   0  0  0  0  0  0  0  0  0  0  0  0
  -20.7870  -14.8210   -4.7440 H   0  0  0  0  0  0  0  0  0  0  0  0
  1  2  2  0  0  0  0
  1 13  1  0  0  0  0
  1 28  1  0  0  0  0
  2  3  1  0  0  0  0
  2 10  1  0  0  0  0
  3  4  1  0  0  0  0
  3  5  1  0  0  0  0
  3 49  1  6  0  0  0
  4 50  1  0  0  0  0
  4 51  1  0  0  0  0
  4 52  1  0  0  0  0
  5  6  1  0  0  0  0
  5 53  1  0  0  0  0
  5 54  1  0  0  0  0
  6  7  1  0  0  0  0
  7  8  2  0  0  0  0
  7  9  1  0  0  0  0
  9 55  1  0  0  0  0
  9 56  1  0  0  0  0
  9 57  1  0  0  0  0
 10 11  1  0  0  0  0
 10 58  1  0  0  0  0
 10 59  1  0  0  0  0
 11 12  1  0  0  0  0
 11 13  1  0  0  0  0
 11 60  1  6  0  0  0
 12 61  1  0  0  0  0
 13 14  1  6  0  0  0
 13 15  1  0  0  0  0
 14 62  1  0  0  0  0
 14 63  1  0  0  0  0
 14 64  1  0  0  0  0
 15 16  2  0  0  0  0
 15 65  1  0  0  0  0
 16 17  1  0  0  0  0
 16 23  1  0  0  0  0
 17 18  1  0  0  0  0
 17 21  1  0  0  0  0
 17 66  1  1  0  0  0
 18 19  1  0  0  0  0
 18 67  1  0  0  0  0
 18 68  1  0  0  0  0
 19 20  1  0  0  0  0
 20 69  1  0  0  0  0
 20 70  1  0  0  0  0
 20 71  1  0  0  0  0
 21 22  1  0  0  0  0
 21 72  1  0  0  0  0
 21 73  1  0  0  0  0
 22 23  1  0  0  0  0
 22 74  1  0  0  0  0
 22 75  1  0  0  0  0
 23 24  1  0  0  0  0
 23 76  1  6  0  0  0
 24 25  1  0  0  0  0
 24 26  1  0  0  0  0
 24 77  1  1  0  0  0
 25 78  1  0  0  0  0
 25 79  1  0  0  0  0
 25 80  1  0  0  0  0
 26 27  1  0  0  0  0
 26 28  1  0  0  0  0
 26 81  1  1  0  0  0
 27 82  1  0  0  0  0
 28 29  1  0  0  0  0
 28 83  1  6  0  0  0
 29 30  1  0  0  0  0
 30 31  1  0  0  0  0
 30 40  1  0  0  0  0
 30 84  1  1  0  0  0
 31 32  1  0  0  0  0
 32 33  1  0  0  0  0
 32 42  1  0  0  0  0
 32 85  1  1  0  0  0
 33 34  1  0  0  0  0
 33 35  1  0  0  0  0
 33 86  1  6  0  0  0
 34 87  1  0  0  0  0
 35 36  1  0  0  0  0
 35 40  1  0  0  0  0
 35 88  1  1  0  0  0
 36 37  1  0  0  0  0
 37 38  2  0  0  0  0
 37 39  1  0  0  0  0
 39 89  1  0  0  0  0
 39 90  1  0  0  0  0
 39 91  1  0  0  0  0
 40 41  1  0  0  0  0
 40 92  1  6  0  0  0
 41 93  1  0  0  0  0
 42 43  1  0  0  0  0
 42 94  1  0  0  0  0
 42 95  1  0  0  0  0
 43 44  1  0  0  0  0
 44 45  1  0  0  0  0
 44 46  1  0  0  0  0
 44 47  1  0  0  0  0
 45 96  1  0  0  0  0
 45 97  1  0  0  0  0
 45 98  1  0  0  0  0
 46 99  1  0  0  0  0
 46100  1  0  0  0  0
 46101  1  0  0  0  0
 47 48  2  0  0  0  0
 47102  1  0  0  0  0
 48103  1  0  0  0  0
 48104  1  0  0  0  0
M  END
>  <COMPND>
    title: molecule 1

$$$$
4LSX_ligand0.pdb
 OpenBabel06042612053D

 82 85  0  0  1  0  0  0  0  0999 V2000
   17.8200   80.7460  -45.5710 C   0  0  0  0  0  0  0  0  0  0  0  0
   17.0180   80.2570  -44.3820 C   0  0  1  0  0  0  0  0  0  0  0  0
   15.7200   79.9620  -44.8460 O   0  0  0  0  0  0  0  0  0  0  0  0
   17.6080   78.9970  -43.7350 C   0  0  1  0  0  0  0  0  0  0  0  0
   17.5480   77.9400  -44.6460 O   0  0  0  0  0  0  0  0  0  0  0  0
   19.0590   79.2200  -43.3560 C   0  0  0  0  0  0  0  0  0  0  0  0
   19.8830   79.5370  -44.5940 C   0  0  2  0  0  0  0  0  0  0  0  0
   21.3440   79.7650  -44.1460 C   0  0  0  0  0  0  0  0  0  0  0  0
   21.5640   78.9850  -42.9370 O   0  0  0  0  0  0  0  0  0  0  0  0
   21.9060   79.2920  -46.2530 C   0  0  0  0  0  0  0  0  0  0  0  0
   22.2790   79.4600  -45.0200 O   0  0  0  0  0  0  0  0  0  0  0  0
   21.4440   80.5410  -46.9410 C   0  0  2  0  0  0  0  0  0  0  0  0
   19.9270   80.7500  -46.8630 C   0  0  1  0  0  0  0  0  0  0  0  0
   19.3370   80.7320  -45.3940 C   0  0  1  0  0  0  0  0  0  0  0  0
   19.5930   82.1320  -47.6310 C   0  0  0  0  0  0  0  0  0  0  0  0
   20.0700   82.1270  -49.0750 C   0  0  0  0  0  0  0  0  0  0  0  0
   21.5220   81.6620  -49.2480 C   0  0  1  0  0  0  0  0  0  0  0  0
   21.7820   80.4020  -48.4720 C   0  0  1  0  0  0  0  0  0  0  0  0
   23.1830   80.1700  -48.6540 C   0  0  0  0  0  0  0  0  0  0  0  0
   23.3160   80.4810  -50.2240 C   0  0  0  0  0  0  0  0  0  0  0  0
   22.0390   81.2010  -50.6040 C   0  0  2  0  0  0  0  0  0  0  0  0
   22.4260   82.7790  -48.7310 C   0  0  0  0  0  0  0  0  0  0  0  0
   19.7840   82.0780  -44.6560 C   0  0  0  0  0  0  0  0  0  0  0  0
   22.3520   82.2320  -51.6330 C   0  0  2  0  0  0  0  0  0  0  0  0
   21.1070   82.9640  -52.1640 C   0  0  0  0  0  0  0  0  0  0  0  0
   22.9620   81.4600  -52.8150 C   0  0  1  0  0  0  0  0  0  0  0  0
   22.1310   80.4490  -53.1490 O   0  0  0  0  0  0  0  0  0  0  0  0
   23.1620   82.3410  -54.0560 C   0  0  2  0  0  0  0  0  0  0  0  0
   23.1800   81.5170  -55.1750 O   0  0  0  0  0  0  0  0  0  0  0  0
   24.5000   83.0950  -53.9540 C   0  0  2  0  0  0  0  0  0  0  0  0
   24.7990   83.8370  -55.2790 C   0  0  0  0  0  0  0  0  0  0  0  0
   23.5430   84.6210  -55.7930 C   0  0  0  0  0  0  0  0  0  0  0  0
   26.0060   84.7810  -55.1120 C   0  0  0  0  0  0  0  0  0  0  0  0
   25.5860   82.1420  -53.6910 C   0  0  0  0  0  0  0  0  0  0  0  0
   17.4540   81.7330  -45.8480 H   0  0  0  0  0  0  0  0  0  0  0  0
   17.5600   80.0980  -46.4100 H   0  0  0  0  0  0  0  0  0  0  0  0
   16.9530   81.0470  -43.6330 H   0  0  0  0  0  0  0  0  0  0  0  0
   15.2060   80.7540  -44.9430 H   0  0  0  0  0  0  0  0  0  0  0  0
   17.0260   78.7260  -42.8530 H   0  0  0  0  0  0  0  0  0  0  0  0
   17.8400   77.1510  -44.2150 H   0  0  0  0  0  0  0  0  0  0  0  0
   19.3620   78.2910  -42.8700 H   0  0  0  0  0  0  0  0  0  0  0  0
   19.1250   80.0110  -42.6070 H   0  0  0  0  0  0  0  0  0  0  0  0
   19.8070   78.6380  -45.2010 H   0  0  0  0  0  0  0  0  0  0  0  0
   21.2440   78.4480  -46.4330 H   0  0  0  0  0  0  0  0  0  0  0  0
   22.8450   78.9340  -46.6550 H   0  0  0  0  0  0  0  0  0  0  0  0
   21.9780   81.3750  -46.4920 H   0  0  0  0  0  0  0  0  0  0  0  0
   19.4660   79.9310  -47.4160 H   0  0  0  0  0  0  0  0  0  0  0  0
   20.0600   82.9790  -47.1310 H   0  0  0  0  0  0  0  0  0  0  0  0
   18.5240   82.3360  -47.6400 H   0  0  0  0  0  0  0  0  0  0  0  0
   19.9160   83.1400  -49.4380 H   0  0  0  0  0  0  0  0  0  0  0  0
   19.4130   81.4940  -49.6620 H   0  0  0  0  0  0  0  0  0  0  0  0
   21.2170   79.5640  -48.8860 H   0  0  0  0  0  0  0  0  0  0  0  0
   23.4700   79.1280  -48.5160 H   0  0  0  0  0  0  0  0  0  0  0  0
   23.8400   80.7700  -48.0240 H   0  0  0  0  0  0  0  0  0  0  0  0
   23.4130   79.5470  -50.7790 H   0  0  0  0  0  0  0  0  0  0  0  0
   24.2270   81.0620  -50.3820 H   0  0  0  0  0  0  0  0  0  0  0  0
   21.3010   80.4860  -50.9590 H   0  0  0  0  0  0  0  0  0  0  0  0
   23.4980   82.6790  -48.8950 H   0  0  0  0  0  0  0  0  0  0  0  0
   22.1740   83.7050  -49.2490 H   0  0  0  0  0  0  0  0  0  0  0  0
   22.2870   83.0300  -47.6830 H   0  0  0  0  0  0  0  0  0  0  0  0
   20.8510   82.2580  -44.6840 H   0  0  0  0  0  0  0  0  0  0  0  0
   19.3150   82.9490  -45.1020 H   0  0  0  0  0  0  0  0  0  0  0  0
   19.4770   82.0770  -43.6110 H   0  0  0  0  0  0  0  0  0  0  0  0
   23.0750   82.9630  -51.2700 H   0  0  0  0  0  0  0  0  0  0  0  0
   21.3620   83.8730  -52.7040 H   0  0  0  0  0  0  0  0  0  0  0  0
   20.4630   82.3430  -52.7880 H   0  0  0  0  0  0  0  0  0  0  0  0
   20.4830   83.3470  -51.3720 H   0  0  0  0  0  0  0  0  0  0  0  0
   23.8530   80.9150  -52.5500 H   0  0  0  0  0  0  0  0  0  0  0  0
   22.6420   79.7510  -53.5510 H   0  0  0  0  0  0  0  0  0  0  0  0
   22.3290   82.9980  -54.2550 H   0  0  0  0  0  0  0  0  0  0  0  0
   22.4100   80.9680  -55.1340 H   0  0  0  0  0  0  0  0  0  0  0  0
   24.4380   83.8240  -53.1470 H   0  0  0  0  0  0  0  0  0  0  0  0
   25.0620   83.1120  -56.0510 H   0  0  0  0  0  0  0  0  0  0  0  0
   23.8050   85.1990  -56.6790 H   0  0  0  0  0  0  0  0  0  0  0  0
   22.7190   83.9790  -56.0750 H   0  0  0  0  0  0  0  0  0  0  0  0
   23.2060   85.3250  -55.0390 H   0  0  0  0  0  0  0  0  0  0  0  0
   26.2010   85.2900  -56.0540 H   0  0  0  0  0  0  0  0  0  0  0  0
   25.8090   85.5470  -54.3640 H   0  0  0  0  0  0  0  0  0  0  0  0
   26.9440   84.2930  -54.8590 H   0  0  0  0  0  0  0  0  0  0  0  0
   26.5780   82.5500  -53.8500 H   0  0  0  0  0  0  0  0  0  0  0  0
   25.6420   81.8440  -52.6450 H   0  0  0  0  0  0  0  0  0  0  0  0
   25.5400   81.2570  -54.3210 H   0  0  0  0  0  0  0  0  0  0  0  0
  1  2  1  0  0  0  0
  1 14  1  0  0  0  0
  1 35  1  0  0  0  0
  1 36  1  0  0  0  0
  2  3  1  0  0  0  0
  2  4  1  0  0  0  0
  2 37  1  1  0  0  0
  3 38  1  0  0  0  0
  4  5  1  0  0  0  0
  4  6  1  0  0  0  0
  4 39  1  1  0  0  0
  5 40  1  0  0  0  0
  6  7  1  0  0  0  0
  6 41  1  0  0  0  0
  6 42  1  0  0  0  0
  7  8  1  0  0  0  0
  7 14  1  0  0  0  0
  7 43  1  6  0  0  0
  8  9  2  0  0  0  0
  8 11  1  0  0  0  0
 10 11  1  0  0  0  0
 10 12  1  0  0  0  0
 10 44  1  0  0  0  0
 10 45  1  0  0  0  0
 12 13  1  0  0  0  0
 12 18  1  0  0  0  0
 12 46  1  1  0  0  0
 13 14  1  0  0  0  0
 13 15  1  0  0  0  0
 13 47  1  6  0  0  0
 14 23  1  1  0  0  0
 15 16  1  0  0  0  0
 15 48  1  0  0  0  0
 15 49  1  0  0  0  0
 16 17  1  0  0  0  0
 16 50  1  0  0  0  0
 16 51  1  0  0  0  0
 17 18  1  0  0  0  0
 17 21  1  0  0  0  0
 17 22  1  1  0  0  0
 18 19  1  0  0  0  0
 18 52  1  6  0  0  0
 19 20  1  0  0  0  0
 19 53  1  0  0  0  0
 19 54  1  0  0  0  0
 20 21  1  0  0  0  0
 20 55  1  0  0  0  0
 20 56  1  0  0  0  0
 21 24  1  0  0  0  0
 21 57  1  6  0  0  0
 22 58  1  0  0  0  0
 22 59  1  0  0  0  0
 22 60  1  0  0  0  0
 23 61  1  0  0  0  0
 23 62  1  0  0  0  0
 23 63  1  0  0  0  0
 24 25  1  0  0  0  0
 24 26  1  0  0  0  0
 24 64  1  1  0  0  0
 25 65  1  0  0  0  0
 25 66  1  0  0  0  0
 25 67  1  0  0  0  0
 26 27  1  0  0  0  0
 26 28  1  0  0  0  0
 26 68  1  1  0  0  0
 27 69  1  0  0  0  0
 28 29  1  0  0  0  0
 28 30  1  0  0  0  0
 28 70  1  6  0  0  0
 29 71  1  0  0  0  0
 30 31  1  0  0  0  0
 30 34  1  0  0  0  0
 30 72  1  1  0  0  0
 31 32  1  0  0  0  0
 31 33  1  0  0  0  0
 31 73  1  0  0  0  0
 32 74  1  0  0  0  0
 32 75  1  0  0  0  0
 32 76  1  0  0  0  0
 33 77  1  0  0  0  0
 33 78  1  0  0  0  0
 33 79  1  0  0  0  0
 34 80  1  0  0  0  0
 34 81  1  0  0  0  0
 34 82  1  0  0  0  0
M  END
>  <COMPND>
    title: molecule 1

$$$$
4M7E_ligand0.pdb
 OpenBabel06042612053D

 82 85  0  0  1  0  0  0  0  0999 V2000
  -13.0970  -30.5520  -23.7190 C   0  0  0  0  0  0  0  0  0  0  0  0
  -13.7950  -30.7580  -22.3900 C   0  0  1  0  0  0  0  0  0  0  0  0
  -12.8890  -30.3280  -21.3710 O   0  0  0  0  0  0  0  0  0  0  0  0
  -15.0880  -29.9540  -22.3550 C   0  0  1  0  0  0  0  0  0  0  0  0
  -14.8390  -28.5400  -22.2030 O   0  0  0  0  0  0  0  0  0  0  0  0
  -15.9580  -30.2380  -23.5890 C   0  0  0  0  0  0  0  0  0  0  0  0
  -15.2970  -30.5720  -24.9420 C   0  0  2  0  0  0  0  0  0  0  0  0
  -16.1710  -31.5160  -25.7180 C   0  0  0  0  0  0  0  0  0  0  0  0
  -16.7310  -32.4170  -25.1440 O   0  0  0  0  0  0  0  0  0  0  0  0
  -15.0650  -30.7440  -27.7270 C   0  0  0  0  0  0  0  0  0  0  0  0
  -15.8280  -31.7620  -27.0990 O   0  0  0  0  0  0  0  0  0  0  0  0
  -13.6040  -31.0800  -27.5270 C   0  0  2  0  0  0  0  0  0  0  0  0
  -13.0830  -30.7000  -26.1490 C   0  0  1  0  0  0  0  0  0  0  0  0
  -13.8660  -31.1200  -24.9030 C   0  0  1  0  0  0  0  0  0  0  0  0
  -11.7060  -31.3310  -26.0700 C   0  0  0  0  0  0  0  0  0  0  0  0
  -10.7600  -30.7270  -27.1040 C   0  0  0  0  0  0  0  0  0  0  0  0
  -11.2810  -30.7290  -28.5350 C   0  0  1  0  0  0  0  0  0  0  0  0
  -12.7170  -30.2620  -28.4530 C   0  0  1  0  0  0  0  0  0  0  0  0
  -13.1060  -30.0380  -29.9010 C   0  0  0  0  0  0  0  0  0  0  0  0
  -11.8420  -29.3500  -30.4340 C   0  0  0  0  0  0  0  0  0  0  0  0
  -10.7030  -29.6720  -29.4680 C   0  0  2  0  0  0  0  0  0  0  0  0
  -11.1910  -32.0880  -29.2150 C   0  0  0  0  0  0  0  0  0  0  0  0
  -13.8010  -32.6440  -24.7640 C   0  0  0  0  0  0  0  0  0  0  0  0
   -9.4020  -30.0450  -30.1780 C   0  0  2  0  0  0  0  0  0  0  0  0
   -8.2400  -30.0180  -29.1830 C   0  0  0  0  0  0  0  0  0  0  0  0
   -9.0930  -29.2000  -31.4600 C   0  0  1  0  0  0  0  0  0  0  0  0
   -9.0430  -27.7600  -31.2610 O   0  0  0  0  0  0  0  0  0  0  0  0
   -7.7730  -29.6210  -32.1520 C   0  0  2  0  0  0  0  0  0  0  0  0
   -7.0420  -28.4520  -32.6000 O   0  0  0  0  0  0  0  0  0  0  0  0
   -7.9900  -30.7250  -33.2160 C   0  0  2  0  0  0  0  0  0  0  0  0
   -6.6910  -31.2900  -33.7750 C   0  0  0  0  0  0  0  0  0  0  0  0
   -6.8860  -32.7710  -34.0600 C   0  0  0  0  0  0  0  0  0  0  0  0
   -5.5190  -31.0570  -32.8360 C   0  0  0  0  0  0  0  0  0  0  0  0
   -8.9540  -30.3580  -34.3380 C   0  0  0  0  0  0  0  0  0  0  0  0
  -12.1590  -31.0620  -23.5190 H   0  0  0  0  0  0  0  0  0  0  0  0
  -12.8680  -29.4930  -23.8540 H   0  0  0  0  0  0  0  0  0  0  0  0
  -14.0250  -31.8070  -22.2200 H   0  0  0  0  0  0  0  0  0  0  0  0
  -12.1430  -30.9210  -21.3000 H   0  0  0  0  0  0  0  0  0  0  0  0
  -15.6430  -30.2390  -21.4590 H   0  0  0  0  0  0  0  0  0  0  0  0
  -15.6500  -28.1020  -21.9850 H   0  0  0  0  0  0  0  0  0  0  0  0
  -16.5410  -29.3620  -23.6270 H   0  0  0  0  0  0  0  0  0  0  0  0
  -16.6510  -31.0140  -23.2630 H   0  0  0  0  0  0  0  0  0  0  0  0
  -15.2610  -29.6080  -25.4460 H   0  0  0  0  0  0  0  0  0  0  0  0
  -15.3150  -29.7310  -27.4170 H   0  0  0  0  0  0  0  0  0  0  0  0
  -15.3180  -30.8040  -28.7850 H   0  0  0  0  0  0  0  0  0  0  0  0
  -13.4990  -32.1460  -27.7190 H   0  0  0  0  0  0  0  0  0  0  0  0
  -12.9940  -29.6160  -26.0720 H   0  0  0  0  0  0  0  0  0  0  0  0
  -11.6910  -32.4160  -26.1640 H   0  0  0  0  0  0  0  0  0  0  0  0
  -11.2000  -31.0100  -25.1850 H   0  0  0  0  0  0  0  0  0  0  0  0
   -9.8110  -31.2480  -27.1240 H   0  0  0  0  0  0  0  0  0  0  0  0
  -10.5270  -29.7190  -26.7850 H   0  0  0  0  0  0  0  0  0  0  0  0
  -12.7220  -29.2390  -28.0720 H   0  0  0  0  0  0  0  0  0  0  0  0
  -13.9780  -29.3920  -30.0030 H   0  0  0  0  0  0  0  0  0  0  0  0
  -13.3330  -30.9680  -30.4230 H   0  0  0  0  0  0  0  0  0  0  0  0
  -11.9860  -28.2720  -30.5180 H   0  0  0  0  0  0  0  0  0  0  0  0
  -11.7120  -29.7470  -31.4370 H   0  0  0  0  0  0  0  0  0  0  0  0
  -10.4850  -28.7990  -28.9290 H   0  0  0  0  0  0  0  0  0  0  0  0
  -11.4850  -32.0900  -30.2620 H   0  0  0  0  0  0  0  0  0  0  0  0
  -10.1770  -32.4860  -29.1630 H   0  0  0  0  0  0  0  0  0  0  0  0
  -11.7920  -32.8480  -28.7210 H   0  0  0  0  0  0  0  0  0  0  0  0
  -13.9910  -33.1460  -25.6950 H   0  0  0  0  0  0  0  0  0  0  0  0
  -12.8370  -33.0120  -24.4130 H   0  0  0  0  0  0  0  0  0  0  0  0
  -14.5170  -33.0140  -24.0340 H   0  0  0  0  0  0  0  0  0  0  0  0
   -9.4500  -31.0500  -30.5870 H   0  0  0  0  0  0  0  0  0  0  0  0
   -7.3890  -29.4040  -29.4710 H   0  0  0  0  0  0  0  0  0  0  0  0
   -8.5320  -29.5960  -28.2230 H   0  0  0  0  0  0  0  0  0  0  0  0
   -7.9020  -31.0280  -28.9650 H   0  0  0  0  0  0  0  0  0  0  0  0
   -9.8830  -29.3120  -32.1910 H   0  0  0  0  0  0  0  0  0  0  0  0
   -9.7750  -27.5130  -30.7180 H   0  0  0  0  0  0  0  0  0  0  0  0
   -7.1390  -30.0380  -31.3860 H   0  0  0  0  0  0  0  0  0  0  0  0
   -7.1270  -27.8070  -31.9110 H   0  0  0  0  0  0  0  0  0  0  0  0
   -8.4670  -31.5400  -32.6690 H   0  0  0  0  0  0  0  0  0  0  0  0
   -6.4590  -30.7750  -34.7090 H   0  0  0  0  0  0  0  0  0  0  0  0
   -6.1060  -33.1180  -34.7300 H   0  0  0  0  0  0  0  0  0  0  0  0
   -6.8520  -33.3720  -33.1510 H   0  0  0  0  0  0  0  0  0  0  0  0
   -7.8210  -32.9630  -34.5850 H   0  0  0  0  0  0  0  0  0  0  0  0
   -4.6170  -31.4000  -33.3060 H   0  0  0  0  0  0  0  0  0  0  0  0
   -5.3000  -30.0230  -32.6320 H   0  0  0  0  0  0  0  0  0  0  0  0
   -5.6290  -31.6010  -31.9140 H   0  0  0  0  0  0  0  0  0  0  0  0
   -8.7960  -30.9420  -35.2450 H   0  0  0  0  0  0  0  0  0  0  0  0
   -9.9920  -30.5140  -34.0430 H   0  0  0  0  0  0  0  0  0  0  0  0
   -8.8450  -29.3050  -34.5830 H   0  0  0  0  0  0  0  0  0  0  0  0
  1  2  1  0  0  0  0
  1 14  1  0  0  0  0
  1 35  1  0  0  0  0
  1 36  1  0  0  0  0
  2  3  1  0  0  0  0
  2  4  1  0  0  0  0
  2 37  1  1  0  0  0
  3 38  1  0  0  0  0
  4  5  1  0  0  0  0
  4  6  1  0  0  0  0
  4 39  1  1  0  0  0
  5 40  1  0  0  0  0
  6  7  1  0  0  0  0
  6 41  1  0  0  0  0
  6 42  1  0  0  0  0
  7  8  1  0  0  0  0
  7 14  1  0  0  0  0
  7 43  1  6  0  0  0
  8  9  2  0  0  0  0
  8 11  1  0  0  0  0
 10 11  1  0  0  0  0
 10 12  1  0  0  0  0
 10 44  1  0  0  0  0
 10 45  1  0  0  0  0
 12 13  1  0  0  0  0
 12 18  1  0  0  0  0
 12 46  1  6  0  0  0
 13 14  1  0  0  0  0
 13 15  1  0  0  0  0
 13 47  1  1  0  0  0
 14 23  1  1  0  0  0
 15 16  1  0  0  0  0
 15 48  1  0  0  0  0
 15 49  1  0  0  0  0
 16 17  1  0  0  0  0
 16 50  1  0  0  0  0
 16 51  1  0  0  0  0
 17 18  1  0  0  0  0
 17 21  1  0  0  0  0
 17 22  1  6  0  0  0
 18 19  1  0  0  0  0
 18 52  1  1  0  0  0
 19 20  1  0  0  0  0
 19 53  1  0  0  0  0
 19 54  1  0  0  0  0
 20 21  1  0  0  0  0
 20 55  1  0  0  0  0
 20 56  1  0  0  0  0
 21 24  1  0  0  0  0
 21 57  1  1  0  0  0
 22 58  1  0  0  0  0
 22 59  1  0  0  0  0
 22 60  1  0  0  0  0
 23 61  1  0  0  0  0
 23 62  1  0  0  0  0
 23 63  1  0  0  0  0
 24 25  1  0  0  0  0
 24 26  1  0  0  0  0
 24 64  1  6  0  0  0
 25 65  1  0  0  0  0
 25 66  1  0  0  0  0
 25 67  1  0  0  0  0
 26 27  1  0  0  0  0
 26 28  1  0  0  0  0
 26 68  1  6  0  0  0
 27 69  1  0  0  0  0
 28 29  1  0  0  0  0
 28 30  1  0  0  0  0
 28 70  1  1  0  0  0
 29 71  1  0  0  0  0
 30 31  1  0  0  0  0
 30 34  1  0  0  0  0
 30 72  1  1  0  0  0
 31 32  1  0  0  0  0
 31 33  1  0  0  0  0
 31 73  1  0  0  0  0
 32 74  1  0  0  0  0
 32 75  1  0  0  0  0
 32 76  1  0  0  0  0
 33 77  1  0  0  0  0
 33 78  1  0  0  0  0
 33 79  1  0  0  0  0
 34 80  1  0  0  0  0
 34 81  1  0  0  0  0
 34 82  1  0  0  0  0
M  END
>  <COMPND>
    title: molecule 1

$$$$
4MDK_ligand0.pdb
 OpenBabel06042612053D

 49 50  0  0  1  0  0  0  0  0999 V2000
   32.1760   35.4120   -7.6460 O   0  5  0  0  0  0  0  0  0  0  0  0
   32.6420   35.7060   -8.7690 C   0  0  0  0  0  0  0  0  0  0  0  0
   33.9590   36.4610   -8.8170 C   0  0  1  0  0  0  0  0  0  0  0  0
   32.1210   35.4650   -9.8790 O   0  0  0  0  0  0  0  0  0  0  0  0
   35.1330   35.4830   -8.6590 C   0  0  2  0  0  0  0  0  0  0  0  0
   36.4520   36.2390   -8.7690 C   0  0  2  0  0  0  0  0  0  0  0  0
   37.6730   35.2930   -8.7290 C   0  0  0  0  0  0  0  0  0  0  0  0
   34.0260   37.1080  -10.0910 O   0  0  0  0  0  0  0  0  0  0  0  0
   35.0770   34.5180   -9.7160 O   0  0  0  0  0  0  0  0  0  0  0  0
   36.4880   37.2990   -7.7490 N   0  0  0  0  0  0  0  0  0  0  0  0
   36.4640   38.6110   -7.9880 C   0  0  0  0  0  0  0  0  0  0  0  0
   36.4560   39.1250   -9.1040 O   0  0  0  0  0  0  0  0  0  0  0  0
   36.5120   39.5000   -6.7520 C   0  0  0  0  0  0  0  0  0  0  0  0
   35.5300   38.7770   -5.9750 O   0  0  0  0  0  0  0  0  0  0  0  0
   35.3560   39.3380   -4.6820 C   0  0  0  0  0  0  0  0  0  0  0  0
   38.9670   35.9990   -9.1390 C   0  0  0  0  0  0  0  0  0  0  0  0
   39.5700   35.4860  -10.2800 C   0  0  0  0  0  0  0  0  0  0  0  0
   40.7360   36.0470  -10.7820 C   0  0  0  0  0  0  0  0  0  0  0  0
   41.3620   37.0900  -10.1040 C   0  0  0  0  0  0  0  0  0  0  0  0
   40.6740   37.6920   -9.0470 C   0  0  0  0  0  0  0  0  0  0  0  0
   39.5270   37.1080   -8.5000 C   0  0  0  0  0  0  0  0  0  0  0  0
   42.4540   37.6860  -10.7340 C   0  0  0  0  0  0  0  0  0  0  0  0
   43.4070   36.9390  -11.4380 C   0  0  0  0  0  0  0  0  0  0  0  0
   44.5090   37.5850  -12.0180 C   0  0  0  0  0  0  0  0  0  0  0  0
   44.6830   38.9560  -11.8520 C   0  0  0  0  0  0  0  0  0  0  0  0
   43.7580   39.6770  -11.1130 C   0  0  0  0  0  0  0  0  0  0  0  0
   42.6890   39.0350  -10.5030 C   0  0  0  0  0  0  0  0  0  0  0  0
   43.9790   41.3730  -10.9120 Cl  0  0  0  0  0  0  0  0  0  0  0  0
   45.6950   36.7230  -12.9450 Cl  0  0  0  0  0  0  0  0  0  0  0  0
   33.9280   37.2130   -8.0280 H   0  0  0  0  0  0  0  0  0  0  0  0
   35.0770   34.9620   -7.7010 H   0  0  0  0  0  0  0  0  0  0  0  0
   36.4880   36.6960   -9.7590 H   0  0  0  0  0  0  0  0  0  0  0  0
   37.5220   34.4160   -9.3590 H   0  0  0  0  0  0  0  0  0  0  0  0
   37.8030   34.9040   -7.7180 H   0  0  0  0  0  0  0  0  0  0  0  0
   33.1500   37.3950  -10.3040 H   0  0  0  0  0  0  0  0  0  0  0  0
   34.8660   34.9810  -10.5140 H   0  0  0  0  0  0  0  0  0  0  0  0
   36.4930   37.0060   -6.7830 H   0  0  0  0  0  0  0  0  0  0  0  0
   36.2010   40.5240   -6.9660 H   0  0  0  0  0  0  0  0  0  0  0  0
   37.4990   39.4890   -6.2880 H   0  0  0  0  0  0  0  0  0  0  0  0
   34.6610   38.7580   -4.0880 H   0  0  0  0  0  0  0  0  0  0  0  0
   36.3100   39.3970   -4.1630 H   0  0  0  0  0  0  0  0  0  0  0  0
   34.9470   40.3410   -4.7840 H   0  0  0  0  0  0  0  0  0  0  0  0
   39.1420   34.6430  -10.8030 H   0  0  0  0  0  0  0  0  0  0  0  0
   41.1650   35.5780  -11.6440 H   0  0  0  0  0  0  0  0  0  0  0  0
   41.0800   38.5380   -8.5170 H   0  0  0  0  0  0  0  0  0  0  0  0
   39.0860   37.5300   -7.6110 H   0  0  0  0  0  0  0  0  0  0  0  0
   43.3370   35.8850  -11.5250 H   0  0  0  0  0  0  0  0  0  0  0  0
   45.5260   39.4560  -12.3050 H   0  0  0  0  0  0  0  0  0  0  0  0
   42.0170   39.6610   -9.9400 H   0  0  0  0  0  0  0  0  0  0  0  0
  1  2  1  0  0  0  0
  2  3  1  0  0  0  0
  2  4  2  0  0  0  0
  3  5  1  0  0  0  0
  3  8  1  0  0  0  0
  3 30  1  1  0  0  0
  5  6  1  0  0  0  0
  5  9  1  0  0  0  0
  5 31  1  1  0  0  0
  6  7  1  0  0  0  0
  6 10  1  0  0  0  0
  6 32  1  6  0  0  0
  7 16  1  0  0  0  0
  7 33  1  0  0  0  0
  7 34  1  0  0  0  0
  8 35  1  0  0  0  0
  9 36  1  0  0  0  0
 10 11  1  0  0  0  0
 10 37  1  0  0  0  0
 11 12  2  0  0  0  0
 11 13  1  0  0  0  0
 13 14  1  0  0  0  0
 13 38  1  0  0  0  0
 13 39  1  0  0  0  0
 14 15  1  0  0  0  0
 15 40  1  0  0  0  0
 15 41  1  0  0  0  0
 15 42  1  0  0  0  0
 16 17  2  0  0  0  0
 16 21  1  0  0  0  0
 17 18  1  0  0  0  0
 17 43  1  0  0  0  0
 18 19  2  0  0  0  0
 18 44  1  0  0  0  0
 19 20  1  0  0  0  0
 19 22  1  0  0  0  0
 20 21  2  0  0  0  0
 20 45  1  0  0  0  0
 21 46  1  0  0  0  0
 22 23  2  0  0  0  0
 22 27  1  0  0  0  0
 23 24  1  0  0  0  0
 23 47  1  0  0  0  0
 24 25  2  0  0  0  0
 24 29  1  0  0  0  0
 25 26  1  0  0  0  0
 25 48  1  0  0  0  0
 26 27  2  0  0  0  0
 26 28  1  0  0  0  0
 27 49  1  0  0  0  0
M  CHG  1   1  -1
M  END
>  <COMPND>
    title: molecule 1

$$$$
4OIC_ligand0.pdb
 OpenBabel06042612053D

 38 38  0  0  1  0  0  0  0  0999 V2000
  -19.5070   -8.1230   44.8620 C   0  0  0  0  0  0  0  0  0  0  0  0
  -19.7330   -8.5100   46.2810 C   0  0  0  0  0  0  0  0  0  0  0  0
  -18.8200   -8.9770   47.1470 C   0  0  0  0  0  0  0  0  0  0  0  0
  -17.3960   -9.1380   46.7740 C   0  0  0  0  0  0  0  0  0  0  0  0
  -16.5440   -9.8120   47.5430 C   0  0  0  0  0  0  0  0  0  0  0  0
  -19.2740   -9.3150   48.5440 C   0  0  0  0  0  0  0  0  0  0  0  0
  -15.0920   -9.9350   47.1250 C   0  0  1  0  0  0  0  0  0  0  0  0
  -14.8790   -9.3850   45.8130 O   0  0  0  0  0  0  0  0  0  0  0  0
  -14.2680   -9.0920   48.0640 C   0  0  0  0  0  0  0  0  0  0  0  0
  -13.6900   -9.6330   49.1380 C   0  0  0  0  0  0  0  0  0  0  0  0
  -13.9450  -11.0460   49.4840 C   0  0  0  0  0  0  0  0  0  0  0  0
  -13.5320  -11.4620   50.5590 O   0  0  0  0  0  0  0  0  0  0  0  0
  -14.6930  -11.9680   48.5410 C   0  0  0  0  0  0  0  0  0  0  0  0
  -18.3650   -8.0370   44.3550 O   0  5  0  0  0  0  0  0  0  0  0  0
  -14.7040  -11.4200   47.1150 C   0  0  0  0  0  0  0  0  0  0  0  0
  -20.5240   -7.8780   44.1800 O   0  0  0  0  0  0  0  0  0  0  0  0
  -14.0850   -7.6290   47.7830 C   0  0  0  0  0  0  0  0  0  0  0  0
  -15.6620  -12.1890   46.2220 C   0  0  0  0  0  0  0  0  0  0  0  0
  -13.3140  -11.6410   46.5000 C   0  0  0  0  0  0  0  0  0  0  0  0
  -20.7470   -8.3990   46.6330 H   0  0  0  0  0  0  0  0  0  0  0  0
  -17.0110   -8.6860   45.8990 H   0  0  0  0  0  0  0  0  0  0  0  0
  -16.8520  -10.2790   48.4650 H   0  0  0  0  0  0  0  0  0  0  0  0
  -18.6070   -8.8780   49.2870 H   0  0  0  0  0  0  0  0  0  0  0  0
  -20.2780   -8.9450   48.7480 H   0  0  0  0  0  0  0  0  0  0  0  0
  -19.2850  -10.3960   48.6820 H   0  0  0  0  0  0  0  0  0  0  0  0
  -14.9400   -8.4420   45.8710 H   0  0  0  0  0  0  0  0  0  0  0  0
  -13.0940   -9.0380   49.8150 H   0  0  0  0  0  0  0  0  0  0  0  0
  -15.7040  -12.0910   48.9130 H   0  0  0  0  0  0  0  0  0  0  0  0
  -14.2490  -12.9600   48.5590 H   0  0  0  0  0  0  0  0  0  0  0  0
  -13.6950   -7.0960   48.6510 H   0  0  0  0  0  0  0  0  0  0  0  0
  -13.3770   -7.4910   46.9660 H   0  0  0  0  0  0  0  0  0  0  0  0
  -15.0230   -7.1600   47.4980 H   0  0  0  0  0  0  0  0  0  0  0  0
  -15.3680  -13.2380   46.1560 H   0  0  0  0  0  0  0  0  0  0  0  0
  -16.6860  -12.1960   46.5950 H   0  0  0  0  0  0  0  0  0  0  0  0
  -15.6840  -11.8080   45.2020 H   0  0  0  0  0  0  0  0  0  0  0  0
  -13.0320  -12.6950   46.5260 H   0  0  0  0  0  0  0  0  0  0  0  0
  -13.2640  -11.3270   45.4570 H   0  0  0  0  0  0  0  0  0  0  0  0
  -12.5330  -11.0990   47.0310 H   0  0  0  0  0  0  0  0  0  0  0  0
  1  2  1  0  0  0  0
  1 14  1  0  0  0  0
  1 16  2  0  0  0  0
  2  3  2  0  0  0  0
  2 20  1  0  0  0  0
  3  4  1  0  0  0  0
  3  6  1  0  0  0  0
  4  5  2  0  0  0  0
  4 21  1  0  0  0  0
  5 22  1  0  0  0  0
  6 23  1  0  0  0  0
  6 24  1  0  0  0  0
  6 25  1  0  0  0  0
  7  5  1  1  0  0  0
  7  8  1  0  0  0  0
  7  9  1  0  0  0  0
  7 15  1  0  0  0  0
  8 26  1  0  0  0  0
  9 10  2  0  0  0  0
  9 17  1  0  0  0  0
 10 11  1  0  0  0  0
 10 27  1  0  0  0  0
 11 12  2  0  0  0  0
 11 13  1  0  0  0  0
 13 15  1  0  0  0  0
 13 28  1  0  0  0  0
 13 29  1  0  0  0  0
 15 18  1  0  0  0  0
 15 19  1  0  0  0  0
 17 30  1  0  0  0  0
 17 31  1  0  0  0  0
 17 32  1  0  0  0  0
 18 33  1  0  0  0  0
 18 34  1  0  0  0  0
 18 35  1  0  0  0  0
 19 36  1  0  0  0  0
 19 37  1  0  0  0  0
 19 38  1  0  0  0  0
M  CHG  1  14  -1
M  END
>  <COMPND>
    title: molecule 1

$$$$
4TR9_ligand0.pdb
 OpenBabel06042612053D

 31 32  0  0  0  0  0  0  0  0999 V2000
   17.4410  -27.0050   50.3230 N   0  0  0  0  0  0  0  0  0  0  0  0
   18.6730  -26.5100   49.7710 C   0  0  0  0  0  0  0  0  0  0  0  0
   19.9920  -28.1630   51.2220 C   0  0  0  0  0  0  0  0  0  0  0  0
   22.3740  -27.9500   51.4810 C   0  0  0  0  0  0  0  0  0  0  0  0
   21.1570  -26.3770   50.1300 C   0  0  0  0  0  0  0  0  0  0  0  0
   14.8530  -27.9310   52.5920 C   0  0  0  0  0  0  0  0  0  0  0  0
   14.4940  -27.2670   53.7630 C   0  0  0  0  0  0  0  0  0  0  0  0
   13.1680  -26.8380   53.9570 O   0  0  0  0  0  0  0  0  0  0  0  0
   15.4460  -27.0260   54.7420 C   0  0  0  0  0  0  0  0  0  0  0  0
   16.7520  -27.4440   54.5520 C   0  0  0  0  0  0  0  0  0  0  0  0
   17.1160  -28.1090   53.3880 C   0  0  0  0  0  0  0  0  0  0  0  0
   15.0930  -26.3540   55.9340 O   0  0  0  0  0  0  0  0  0  0  0  0
   16.1650  -28.3510   52.4110 C   0  0  0  0  0  0  0  0  0  0  0  0
   16.5850  -29.0890   51.1360 C   0  0  0  0  0  0  0  0  0  0  0  0
   16.3760  -30.2820   51.0300 O   0  0  0  0  0  0  0  0  0  0  0  0
   17.2290  -28.3680   50.0840 N   0  0  0  0  0  0  0  0  0  0  0  0
   19.9650  -27.0390   50.4100 C   0  0  0  0  0  0  0  0  0  0  0  0
   21.1910  -28.6170   51.7590 C   0  0  0  0  0  0  0  0  0  0  0  0
   23.8780  -28.5260   52.1580 Cl  0  0  0  0  0  0  0  0  0  0  0  0
   22.3550  -26.8320   50.6660 C   0  0  0  0  0  0  0  0  0  0  0  0
   21.1530  -24.9680   49.1070 Cl  0  0  0  0  0  0  0  0  0  0  0  0
   18.6690  -25.6860   49.0590 H   0  0  0  0  0  0  0  0  0  0  0  0
   19.1360  -28.7460   51.4770 H   0  0  0  0  0  0  0  0  0  0  0  0
   14.1160  -28.1370   51.8350 H   0  0  0  0  0  0  0  0  0  0  0  0
   12.5920  -27.4760   54.4030 H   0  0  0  0  0  0  0  0  0  0  0  0
   17.4980  -27.2210   55.2920 H   0  0  0  0  0  0  0  0  0  0  0  0
   18.1380  -28.4330   53.2820 H   0  0  0  0  0  0  0  0  0  0  0  0
   14.1500  -26.3460   56.0240 H   0  0  0  0  0  0  0  0  0  0  0  0
   17.6860  -28.7930   49.2880 H   0  0  0  0  0  0  0  0  0  0  0  0
   21.1940  -29.4870   52.3980 H   0  0  0  0  0  0  0  0  0  0  0  0
   23.2740  -26.3090   50.4460 H   0  0  0  0  0  0  0  0  0  0  0  0
  1  2  2  0  0  0  0
  1 16  1  0  0  0  0
  2 17  1  0  0  0  0
  2 22  1  0  0  0  0
  3 17  2  0  0  0  0
  3 18  1  0  0  0  0
  3 23  1  0  0  0  0
  4 18  2  0  0  0  0
  4 19  1  0  0  0  0
  4 20  1  0  0  0  0
  5 17  1  0  0  0  0
  5 20  2  0  0  0  0
  5 21  1  0  0  0  0
  6  7  2  0  0  0  0
  6 13  1  0  0  0  0
  6 24  1  0  0  0  0
  7  8  1  0  0  0  0
  7  9  1  0  0  0  0
  8 25  1  0  0  0  0
  9 10  2  0  0  0  0
  9 12  1  0  0  0  0
 10 11  1  0  0  0  0
 10 26  1  0  0  0  0
 11 13  2  0  0  0  0
 11 27  1  0  0  0  0
 12 28  1  0  0  0  0
 13 14  1  0  0  0  0
 14 15  2  0  0  0  0
 14 16  1  0  0  0  0
 16 29  1  0  0  0  0
 18 30  1  0  0  0  0
 20 31  1  0  0  0  0
M  END
>  <COMPND>
    title: molecule 1

$$$$
5D3F_ligand0.pdb
 OpenBabel06042612053D

104107  0  0  1  0  0  0  0  0999 V2000
    6.8180  -13.1220   21.4450 C   0  0  0  0  0  0  0  0  0  0  0  0
    5.8900  -12.7120   22.4180 C   0  0  0  0  0  0  0  0  0  0  0  0
    4.3690  -12.9000   22.3510 C   0  0  2  0  0  0  0  0  0  0  0  0
    3.6180  -11.5940   22.5980 C   0  0  0  0  0  0  0  0  0  0  0  0
    3.8900  -13.8960   23.3740 C   0  0  0  0  0  0  0  0  0  0  0  0
    2.4960  -13.9380   23.3200 O   0  0  0  0  0  0  0  0  0  0  0  0
    1.8750  -14.7570   24.2990 C   0  0  0  0  0  0  0  0  0  0  0  0
    2.0430  -14.4890   25.4810 O   0  0  0  0  0  0  0  0  0  0  0  0
    0.7440  -15.6950   23.8820 C   0  0  0  0  0  0  0  0  0  0  0  0
    6.5620  -12.0260   23.5700 C   0  0  0  0  0  0  0  0  0  0  0  0
    8.0620  -12.4970   23.3440 C   0  0  2  0  0  0  0  0  0  0  0  0
    8.8470  -11.5310   23.5630 O   0  0  0  0  0  0  0  0  0  0  0  0
    8.1020  -12.8240   21.7510 C   0  0  1  0  0  0  0  0  0  0  0  0
    9.0910  -14.0440   21.4830 C   0  0  0  0  0  0  0  0  0  0  0  0
    8.6720  -11.5210   21.1820 C   0  0  0  0  0  0  0  0  0  0  0  0
    8.0100  -10.5710   20.1600 C   0  0  0  0  0  0  0  0  0  0  0  0
    8.7730   -9.1680   19.6700 C   0  0  1  0  0  0  0  0  0  0  0  0
   10.1850   -9.5370   19.4010 C   0  0  0  0  0  0  0  0  0  0  0  0
   10.7960   -8.6140   18.5630 O   0  0  0  0  0  0  0  0  0  0  0  0
   12.2080   -8.7740   18.6320 C   0  0  0  0  0  0  0  0  0  0  0  0
    7.9910   -8.7640   18.5840 C   0  0  0  0  0  0  0  0  0  0  0  0
    6.5070   -9.2620   18.9450 C   0  0  0  0  0  0  0  0  0  0  0  0
    6.8010  -10.6850   19.5570 C   0  0  1  0  0  0  0  0  0  0  0  0
    6.7570  -11.8070   18.4680 C   0  0  1  0  0  0  0  0  0  0  0  0
    8.1160  -12.2020   17.9600 C   0  0  0  0  0  0  0  0  0  0  0  0
    5.9450  -13.0010   18.9640 C   0  0  1  0  0  0  0  0  0  0  0  0
    5.7230  -13.8890   17.8840 O   0  0  0  0  0  0  0  0  0  0  0  0
    6.5320  -13.8830   20.0910 C   0  0  2  0  0  0  0  0  0  0  0  0
    5.6210  -15.0140   20.3110 O   0  0  0  0  0  0  0  0  0  0  0  0
    6.1910  -16.2840   20.0040 C   0  0  1  0  0  0  0  0  0  0  0  0
    7.1440  -16.6290   21.0710 O   0  0  0  0  0  0  0  0  0  0  0  0
    6.5050  -16.5860   22.3880 C   0  0  1  0  0  0  0  0  0  0  0  0
    5.3830  -17.6040   22.4500 C   0  0  1  0  0  0  0  0  0  0  0  0
    4.6530  -17.5010   23.6890 O   0  0  0  0  0  0  0  0  0  0  0  0
    4.4320  -17.4100   21.3110 C   0  0  2  0  0  0  0  0  0  0  0  0
    3.5350  -18.5270   21.2230 O   0  0  0  0  0  0  0  0  0  0  0  0
    2.2370  -18.2230   21.7370 C   0  0  0  0  0  0  0  0  0  0  0  0
    1.5990  -17.2920   21.2590 O   0  0  0  0  0  0  0  0  0  0  0  0
    1.6440  -19.1300   22.8260 C   0  0  0  0  0  0  0  0  0  0  0  0
    5.0750  -17.2950   19.9800 C   0  0  1  0  0  0  0  0  0  0  0  0
    4.0450  -16.8700   19.0690 O   0  0  0  0  0  0  0  0  0  0  0  0
    7.5970  -16.8420   23.4390 C   0  0  0  0  0  0  0  0  0  0  0  0
    8.3770  -17.9590   23.0320 O   0  0  0  0  0  0  0  0  0  0  0  0
    9.0390  -18.6440   24.1070 C   0  0  0  0  0  0  0  0  0  0  0  0
   10.3760  -17.9060   24.3590 C   0  0  0  0  0  0  0  0  0  0  0  0
    9.3130  -20.1160   23.6740 C   0  0  0  0  0  0  0  0  0  0  0  0
    8.1770  -18.6970   25.3490 C   0  0  0  0  0  0  0  0  0  0  0  0
    7.0530  -19.4940   25.3770 C   0  0  0  0  0  0  0  0  0  0  0  0
    4.1130  -13.2620   21.3590 H   0  0  0  0  0  0  0  0  0  0  0  0
    2.5700  -11.6590   22.3040 H   0  0  0  0  0  0  0  0  0  0  0  0
    3.6680  -11.2820   23.6420 H   0  0  0  0  0  0  0  0  0  0  0  0
    4.0470  -10.7900   22.0000 H   0  0  0  0  0  0  0  0  0  0  0  0
    4.2220  -13.6060   24.3710 H   0  0  0  0  0  0  0  0  0  0  0  0
    4.2780  -14.8900   23.1710 H   0  0  0  0  0  0  0  0  0  0  0  0
   -0.1690  -15.4490   24.4250 H   0  0  0  0  0  0  0  0  0  0  0  0
    0.5410  -15.6020   22.8170 H   0  0  0  0  0  0  0  0  0  0  0  0
    1.0110  -16.7270   24.1030 H   0  0  0  0  0  0  0  0  0  0  0  0
    6.1770  -12.3520   24.5360 H   0  0  0  0  0  0  0  0  0  0  0  0
    6.4240  -10.9510   23.4720 H   0  0  0  0  0  0  0  0  0  0  0  0
    8.3020  -13.3700   23.9520 H   0  0  0  0  0  0  0  0  0  0  0  0
    8.6210  -10.8350   22.9660 H   0  0  0  0  0  0  0  0  0  0  0  0
    9.9980  -13.9270   22.0760 H   0  0  0  0  0  0  0  0  0  0  0  0
    8.6790  -15.0050   21.7360 H   0  0  0  0  0  0  0  0  0  0  0  0
    9.4270  -14.0780   20.4490 H   0  0  0  0  0  0  0  0  0  0  0  0
    9.6960  -11.2880   21.4430 H   0  0  0  0  0  0  0  0  0  0  0  0
    8.7060   -8.4230   20.4640 H   0  0  0  0  0  0  0  0  0  0  0  0
   10.2620  -10.5210   18.9410 H   0  0  0  0  0  0  0  0  0  0  0  0
   10.7100   -9.5890   20.3570 H   0  0  0  0  0  0  0  0  0  0  0  0
   12.5980   -8.5690   17.6370 H   0  0  0  0  0  0  0  0  0  0  0  0
   12.6230   -8.0510   19.3340 H   0  0  0  0  0  0  0  0  0  0  0  0
   12.5420   -9.7640   18.9360 H   0  0  0  0  0  0  0  0  0  0  0  0
    8.2980   -9.3540   17.7250 H   0  0  0  0  0  0  0  0  0  0  0  0
    8.0150   -7.8130   18.1070 H   0  0  0  0  0  0  0  0  0  0  0  0
    5.8490   -9.2840   18.0820 H   0  0  0  0  0  0  0  0  0  0  0  0
    6.0590   -8.6030   19.6900 H   0  0  0  0  0  0  0  0  0  0  0  0
    6.0310  -10.8540   20.3090 H   0  0  0  0  0  0  0  0  0  0  0  0
    6.2070  -11.4170   17.6100 H   0  0  0  0  0  0  0  0  0  0  0  0
    8.0260  -12.9450   17.1680 H   0  0  0  0  0  0  0  0  0  0  0  0
    8.6650  -11.3820   17.5110 H   0  0  0  0  0  0  0  0  0  0  0  0
    8.7510  -12.6520   18.7200 H   0  0  0  0  0  0  0  0  0  0  0  0
    4.9600  -12.6440   19.2670 H   0  0  0  0  0  0  0  0  0  0  0  0
    5.0030  -14.4620   18.1090 H   0  0  0  0  0  0  0  0  0  0  0  0
    7.4540  -14.2830   19.6810 H   0  0  0  0  0  0  0  0  0  0  0  0
    6.7030  -16.2620   19.0410 H   0  0  0  0  0  0  0  0  0  0  0  0
    6.1190  -15.5900   22.5800 H   0  0  0  0  0  0  0  0  0  0  0  0
    5.8120  -18.6060   22.3880 H   0  0  0  0  0  0  0  0  0  0  0  0
    5.2410  -17.7010   24.4020 H   0  0  0  0  0  0  0  0  0  0  0  0
    3.8970  -16.4750   21.4960 H   0  0  0  0  0  0  0  0  0  0  0  0
    0.5710  -18.9650   22.9180 H   0  0  0  0  0  0  0  0  0  0  0  0
    1.8150  -20.1780   22.5790 H   0  0  0  0  0  0  0  0  0  0  0  0
    2.1130  -18.9190   23.7870 H   0  0  0  0  0  0  0  0  0  0  0  0
    5.4880  -18.2530   19.6600 H   0  0  0  0  0  0  0  0  0  0  0  0
    3.7390  -16.0020   19.2930 H   0  0  0  0  0  0  0  0  0  0  0  0
    7.0720  -16.8760   24.3890 H   0  0  0  0  0  0  0  0  0  0  0  0
    8.2630  -15.9890   23.5430 H   0  0  0  0  0  0  0  0  0  0  0  0
   10.9890  -18.4380   25.0870 H   0  0  0  0  0  0  0  0  0  0  0  0
   10.9590  -17.8030   23.4430 H   0  0  0  0  0  0  0  0  0  0  0  0
   10.1920  -16.9120   24.7610 H   0  0  0  0  0  0  0  0  0  0  0  0
    9.7240  -20.7060   24.4940 H   0  0  0  0  0  0  0  0  0  0  0  0
    8.4250  -20.6220   23.2970 H   0  0  0  0  0  0  0  0  0  0  0  0
   10.0420  -20.1420   22.8630 H   0  0  0  0  0  0  0  0  0  0  0  0
    8.4690  -18.1100   26.2090 H   0  0  0  0  0  0  0  0  0  0  0  0
    6.4440  -19.5410   26.2680 H   0  0  0  0  0  0  0  0  0  0  0  0
    6.7300  -20.0820   24.5320 H   0  0  0  0  0  0  0  0  0  0  0  0
  1  2  2  0  0  0  0
  1 13  1  0  0  0  0
  1 28  1  0  0  0  0
  2  3  1  0  0  0  0
  2 10  1  0  0  0  0
  3  4  1  0  0  0  0
  3  5  1  0  0  0  0
  3 49  1  6  0  0  0
  4 50  1  0  0  0  0
  4 51  1  0  0  0  0
  4 52  1  0  0  0  0
  5  6  1  0  0  0  0
  5 53  1  0  0  0  0
  5 54  1  0  0  0  0
  6  7  1  0  0  0  0
  7  8  2  0  0  0  0
  7  9  1  0  0  0  0
  9 55  1  0  0  0  0
  9 56  1  0  0  0  0
  9 57  1  0  0  0  0
 10 11  1  0  0  0  0
 10 58  1  0  0  0  0
 10 59  1  0  0  0  0
 11 12  1  0  0  0  0
 11 13  1  0  0  0  0
 11 60  1  1  0  0  0
 12 61  1  0  0  0  0
 13 14  1  6  0  0  0
 13 15  1  0  0  0  0
 14 62  1  0  0  0  0
 14 63  1  0  0  0  0
 14 64  1  0  0  0  0
 15 16  2  0  0  0  0
 15 65  1  0  0  0  0
 16 17  1  0  0  0  0
 16 23  1  0  0  0  0
 17 18  1  0  0  0  0
 17 21  1  0  0  0  0
 17 66  1  1  0  0  0
 18 19  1  0  0  0  0
 18 67  1  0  0  0  0
 18 68  1  0  0  0  0
 19 20  1  0  0  0  0
 20 69  1  0  0  0  0
 20 70  1  0  0  0  0
 20 71  1  0  0  0  0
 21 22  1  0  0  0  0
 21 72  1  0  0  0  0
 21 73  1  0  0  0  0
 22 23  1  0  0  0  0
 22 74  1  0  0  0  0
 22 75  1  0  0  0  0
 23 24  1  0  0  0  0
 23 76  1  1  0  0  0
 24 25  1  0  0  0  0
 24 26  1  0  0  0  0
 24 77  1  6  0  0  0
 25 78  1  0  0  0  0
 25 79  1  0  0  0  0
 25 80  1  0  0  0  0
 26 27  1  0  0  0  0
 26 28  1  0  0  0  0
 26 81  1  1  0  0  0
 27 82  1  0  0  0  0
 28 29  1  0  0  0  0
 28 83  1  6  0  0  0
 29 30  1  0  0  0  0
 30 31  1  0  0  0  0
 30 40  1  0  0  0  0
 30 84  1  6  0  0  0
 31 32  1  0  0  0  0
 32 33  1  0  0  0  0
 32 42  1  0  0  0  0
 32 85  1  1  0  0  0
 33 34  1  0  0  0  0
 33 35  1  0  0  0  0
 33 86  1  6  0  0  0
 34 87  1  0  0  0  0
 35 36  1  0  0  0  0
 35 40  1  0  0  0  0
 35 88  1  1  0  0  0
 36 37  1  0  0  0  0
 37 38  2  0  0  0  0
 37 39  1  0  0  0  0
 39 89  1  0  0  0  0
 39 90  1  0  0  0  0
 39 91  1  0  0  0  0
 40 41  1  0  0  0  0
 40 92  1  6  0  0  0
 41 93  1  0  0  0  0
 42 43  1  0  0  0  0
 42 94  1  0  0  0  0
 42 95  1  0  0  0  0
 43 44  1  0  0  0  0
 44 45  1  0  0  0  0
 44 46  1  0  0  0  0
 44 47  1  0  0  0  0
 45 96  1  0  0  0  0
 45 97  1  0  0  0  0
 45 98  1  0  0  0  0
 46 99  1  0  0  0  0
 46100  1  0  0  0  0
 46101  1  0  0  0  0
 47 48  2  0  0  0  0
 47102  1  0  0  0  0
 48103  1  0  0  0  0
 48104  1  0  0  0  0
M  END
>  <COMPND>
    title: molecule 1

$$$$
5EXA_ligand0.pdb
 OpenBabel06042612053D

 86 90  0  0  1  0  0  0  0  0999 V2000
    6.0870    4.9330  -15.9430 C   0  0  2  0  0  0  0  0  0  0  0  0
    6.9140    3.8090  -15.1480 C   0  0  1  0  0  0  0  0  0  0  0  0
    5.9370    3.0550  -14.2620 C   0  0  0  0  0  0  0  0  0  0  0  0
    6.9210    5.7060  -16.9840 C   0  0  2  0  0  0  0  0  0  0  0  0
    9.0510    7.3390  -13.8970 C   0  0  0  0  0  0  0  0  0  0  0  0
   10.3840    6.7880  -13.3010 C   0  0  0  0  0  0  0  0  0  0  0  0
   11.6400    7.4390  -13.9020 C   0  0  0  0  0  0  0  0  0  0  0  0
   10.4540    5.2180  -13.1670 C   0  0  0  0  0  0  0  0  0  0  0  0
   10.7290    4.2110  -14.0520 C   0  0  0  0  0  0  0  0  0  0  0  0
   10.2740    4.7920  -11.8120 C   0  0  0  0  0  0  0  0  0  0  0  0
   10.6480    3.3400  -11.7380 C   0  0  0  0  0  0  0  0  0  0  0  0
   10.6260    3.0150  -13.2430 C   0  0  1  0  0  0  0  0  0  0  0  0
   10.4550    1.5740  -13.7860 C   0  0  0  0  0  0  0  0  0  0  0  0
   12.0470    2.5960  -12.9690 C   0  0  0  0  0  0  0  0  0  0  0  0
   13.3670    2.8900  -13.2910 C   0  0  0  0  0  0  0  0  0  0  0  0
   14.5610    2.3550  -12.6750 C   0  0  1  0  0  0  0  0  0  0  0  0
   14.9630    0.9790  -13.1910 C   0  0  0  0  0  0  0  0  0  0  0  0
   15.8510    0.3540  -12.2930 O   0  0  0  0  0  0  0  0  0  0  0  0
   16.3470   -1.0360  -12.6780 C   0  0  0  0  0  0  0  0  0  0  0  0
   15.7320    3.3710  -12.8530 C   0  0  0  0  0  0  0  0  0  0  0  0
   15.3800    4.1530  -14.1010 C   0  0  0  0  0  0  0  0  0  0  0  0
   13.8140    3.9670  -14.1840 C   0  0  1  0  0  0  0  0  0  0  0  0
   13.5000    3.8350  -15.7210 C   0  0  1  0  0  0  0  0  0  0  0  0
   13.4720    2.4290  -16.3660 C   0  0  0  0  0  0  0  0  0  0  0  0
   12.2530    4.6840  -16.0090 C   0  0  1  0  0  0  0  0  0  0  0  0
   12.1690    4.9570  -17.4490 O   0  0  0  0  0  0  0  0  0  0  0  0
   10.9200    4.0670  -15.4870 C   0  0  2  0  0  0  0  0  0  0  0  0
    9.9050    4.5850  -16.3770 O   0  0  0  0  0  0  0  0  0  0  0  0
    8.4920    4.1860  -16.4310 C   0  0  2  0  0  0  0  0  0  0  0  0
    7.8280    2.9620  -15.9880 O   0  0  0  0  0  0  0  0  0  0  0  0
    5.3460    4.0930  -13.3490 O   0  0  0  0  0  0  0  0  0  0  0  0
    4.6070    5.2350  -14.0040 C   0  0  0  0  0  0  0  0  0  0  0  0
    4.2330    6.3200  -12.9550 C   0  0  0  0  0  0  0  0  0  0  0  0
    3.3120    4.7130  -14.7070 C   0  0  0  0  0  0  0  0  0  0  0  0
    5.5150    5.8750  -14.9810 O   0  0  0  0  0  0  0  0  0  0  0  0
    6.1250    6.4210  -17.8940 O   0  0  0  0  0  0  0  0  0  0  0  0
    7.7630    4.7150  -17.6980 C   0  0  2  0  0  0  0  0  0  0  0  0
    8.5900    5.4050  -18.6500 O   0  0  0  0  0  0  0  0  0  0  0  0
    5.2970    4.4350  -16.5040 H   0  0  0  0  0  0  0  0  0  0  0  0
    7.4760    4.2590  -14.3190 H   0  0  0  0  0  0  0  0  0  0  0  0
    6.4590    2.3100  -13.6610 H   0  0  0  0  0  0  0  0  0  0  0  0
    5.1750    2.5330  -14.8400 H   0  0  0  0  0  0  0  0  0  0  0  0
    7.5130    6.4890  -16.5080 H   0  0  0  0  0  0  0  0  0  0  0  0
    8.1830    6.9140  -13.3910 H   0  0  0  0  0  0  0  0  0  0  0  0
    8.9970    8.4240  -13.8070 H   0  0  0  0  0  0  0  0  0  0  0  0
    8.9790    7.0940  -14.9520 H   0  0  0  0  0  0  0  0  0  0  0  0
   10.3810    7.1670  -12.2780 H   0  0  0  0  0  0  0  0  0  0  0  0
   12.5530    6.9540  -13.5620 H   0  0  0  0  0  0  0  0  0  0  0  0
   11.5850    7.4220  -14.9810 H   0  0  0  0  0  0  0  0  0  0  0  0
   11.7030    8.4900  -13.6160 H   0  0  0  0  0  0  0  0  0  0  0  0
    9.2250    4.9310  -11.5510 H   0  0  0  0  0  0  0  0  0  0  0  0
   10.8590    5.3780  -11.1090 H   0  0  0  0  0  0  0  0  0  0  0  0
    9.8670    2.7820  -11.2180 H   0  0  0  0  0  0  0  0  0  0  0  0
   11.5130    3.3530  -11.0690 H   0  0  0  0  0  0  0  0  0  0  0  0
   10.3700    0.8180  -12.9990 H   0  0  0  0  0  0  0  0  0  0  0  0
    9.4850    1.5330  -14.2820 H   0  0  0  0  0  0  0  0  0  0  0  0
   11.1520    1.2040  -14.5430 H   0  0  0  0  0  0  0  0  0  0  0  0
   12.1300    1.7580  -12.2720 H   0  0  0  0  0  0  0  0  0  0  0  0
   14.3480    2.3130  -11.6170 H   0  0  0  0  0  0  0  0  0  0  0  0
   15.4180    1.0510  -14.1800 H   0  0  0  0  0  0  0  0  0  0  0  0
   14.0810    0.3440  -13.2840 H   0  0  0  0  0  0  0  0  0  0  0  0
   17.0610   -1.3970  -11.9370 H   0  0  0  0  0  0  0  0  0  0  0  0
   15.5170   -1.7410  -12.7210 H   0  0  0  0  0  0  0  0  0  0  0  0
   16.8430   -1.0160  -13.6480 H   0  0  0  0  0  0  0  0  0  0  0  0
   16.7050    2.8910  -12.9470 H   0  0  0  0  0  0  0  0  0  0  0  0
   15.7730    4.0450  -11.9970 H   0  0  0  0  0  0  0  0  0  0  0  0
   15.8920    3.6900  -14.9450 H   0  0  0  0  0  0  0  0  0  0  0  0
   15.6830    5.1990  -14.0470 H   0  0  0  0  0  0  0  0  0  0  0  0
   13.3980    4.8830  -13.7700 H   0  0  0  0  0  0  0  0  0  0  0  0
   14.2860    4.3710  -16.2560 H   0  0  0  0  0  0  0  0  0  0  0  0
   13.2590    2.4820  -17.4340 H   0  0  0  0  0  0  0  0  0  0  0  0
   14.4420    1.9470  -16.2560 H   0  0  0  0  0  0  0  0  0  0  0  0
   12.7320    1.7770  -15.9140 H   0  0  0  0  0  0  0  0  0  0  0  0
   12.4180    5.6620  -15.5860 H   0  0  0  0  0  0  0  0  0  0  0  0
   11.5050    5.6220  -17.5970 H   0  0  0  0  0  0  0  0  0  0  0  0
   10.9150    3.0190  -15.7640 H   0  0  0  0  0  0  0  0  0  0  0  0
    8.6090    4.9780  -15.6790 H   0  0  0  0  0  0  0  0  0  0  0  0
    3.7210    7.1510  -13.4400 H   0  0  0  0  0  0  0  0  0  0  0  0
    3.5810    5.8930  -12.1920 H   0  0  0  0  0  0  0  0  0  0  0  0
    5.1380    6.6930  -12.4750 H   0  0  0  0  0  0  0  0  0  0  0  0
    2.8170    5.5350  -15.2250 H   0  0  0  0  0  0  0  0  0  0  0  0
    3.5140    3.9220  -15.4250 H   0  0  0  0  0  0  0  0  0  0  0  0
    2.6290    4.3130  -13.9570 H   0  0  0  0  0  0  0  0  0  0  0  0
    6.6990    6.7950  -18.5470 H   0  0  0  0  0  0  0  0  0  0  0  0
    7.1890    3.9220  -18.1810 H   0  0  0  0  0  0  0  0  0  0  0  0
    9.1770    5.9960  -18.1920 H   0  0  0  0  0  0  0  0  0  0  0  0
  1  2  1  0  0  0  0
  1  4  1  0  0  0  0
  1 35  1  0  0  0  0
  1 39  1  6  0  0  0
  2  3  1  0  0  0  0
  2 30  1  0  0  0  0
  2 40  1  1  0  0  0
  3 31  1  0  0  0  0
  3 41  1  0  0  0  0
  3 42  1  0  0  0  0
  4 36  1  0  0  0  0
  4 37  1  0  0  0  0
  4 43  1  1  0  0  0
  5  6  1  0  0  0  0
  5 44  1  0  0  0  0
  5 45  1  0  0  0  0
  5 46  1  0  0  0  0
  6  7  1  0  0  0  0
  6  8  1  0  0  0  0
  6 47  1  0  0  0  0
  7 48  1  0  0  0  0
  7 49  1  0  0  0  0
  7 50  1  0  0  0  0
  8  9  2  0  0  0  0
  8 10  1  0  0  0  0
  9 12  1  0  0  0  0
  9 27  1  0  0  0  0
 10 11  1  0  0  0  0
 10 51  1  0  0  0  0
 10 52  1  0  0  0  0
 11 12  1  0  0  0  0
 11 53  1  0  0  0  0
 11 54  1  0  0  0  0
 12 13  1  6  0  0  0
 12 14  1  0  0  0  0
 13 55  1  0  0  0  0
 13 56  1  0  0  0  0
 13 57  1  0  0  0  0
 14 15  2  0  0  0  0
 14 58  1  0  0  0  0
 15 16  1  0  0  0  0
 15 22  1  0  0  0  0
 16 17  1  0  0  0  0
 16 20  1  0  0  0  0
 16 59  1  1  0  0  0
 17 18  1  0  0  0  0
 17 60  1  0  0  0  0
 17 61  1  0  0  0  0
 18 19  1  0  0  0  0
 19 62  1  0  0  0  0
 19 63  1  0  0  0  0
 19 64  1  0  0  0  0
 20 21  1  0  0  0  0
 20 65  1  0  0  0  0
 20 66  1  0  0  0  0
 21 22  1  0  0  0  0
 21 67  1  0  0  0  0
 21 68  1  0  0  0  0
 22 23  1  0  0  0  0
 22 69  1  1  0  0  0
 23 24  1  0  0  0  0
 23 25  1  0  0  0  0
 23 70  1  6  0  0  0
 24 71  1  0  0  0  0
 24 72  1  0  0  0  0
 24 73  1  0  0  0  0
 25 26  1  0  0  0  0
 25 27  1  0  0  0  0
 25 74  1  1  0  0  0
 26 75  1  0  0  0  0
 27 28  1  0  0  0  0
 27 76  1  6  0  0  0
 28 29  1  0  0  0  0
 29 30  1  0  0  0  0
 29 37  1  0  0  0  0
 29 77  1  1  0  0  0
 31 32  1  0  0  0  0
 32 33  1  0  0  0  0
 32 34  1  0  0  0  0
 32 35  1  0  0  0  0
 33 78  1  0  0  0  0
 33 79  1  0  0  0  0
 33 80  1  0  0  0  0
 34 81  1  0  0  0  0
 34 82  1  0  0  0  0
 34 83  1  0  0  0  0
 36 84  1  0  0  0  0
 37 38  1  0  0  0  0
 37 85  1  6  0  0  0
 38 86  1  0  0  0  0
M  END
>  <COMPND>
    title: molecule 1

$$$$
5GWO_ligand0.pdb
 OpenBabel06042612053D

 38 38  0  0  1  0  0  0  0  0999 V2000
  -34.7920   -0.1200   -9.1260 C   0  0  0  0  0  0  0  0  0  0  0  0
  -36.1730    0.1630   -9.7280 C   0  0  0  0  0  0  0  0  0  0  0  0
  -37.2910    0.0650   -8.9930 C   0  0  0  0  0  0  0  0  0  0  0  0
  -37.2530   -0.3440   -7.5080 C   0  0  0  0  0  0  0  0  0  0  0  0
  -38.3280   -0.9520   -6.9090 C   0  0  0  0  0  0  0  0  0  0  0  0
  -38.6620    0.3480   -9.6190 C   0  0  0  0  0  0  0  0  0  0  0  0
  -38.2080   -1.3340   -5.4080 C   0  0  1  0  0  0  0  0  0  0  0  0
  -36.8740   -1.6280   -5.7640 O   0  0  0  0  0  0  0  0  0  0  0  0
  -38.6610    0.1280   -5.1330 C   0  0  0  0  0  0  0  0  0  0  0  0
  -40.1540    0.3780   -4.9270 C   0  0  0  0  0  0  0  0  0  0  0  0
  -41.1420   -0.7420   -5.2620 C   0  0  0  0  0  0  0  0  0  0  0  0
  -42.2950   -0.6470   -4.9680 O   0  0  0  0  0  0  0  0  0  0  0  0
  -40.6470   -1.9940   -5.9850 C   0  0  0  0  0  0  0  0  0  0  0  0
  -34.5810    0.0740   -7.9000 O   0  5  0  0  0  0  0  0  0  0  0  0
  -39.2500   -2.4630   -5.6000 C   0  0  0  0  0  0  0  0  0  0  0  0
  -33.8470   -0.5430   -9.8500 O   0  0  0  0  0  0  0  0  0  0  0  0
  -37.6900    1.1100   -4.4620 C   0  0  0  0  0  0  0  0  0  0  0  0
  -39.3820   -3.2360   -4.2840 C   0  0  0  0  0  0  0  0  0  0  0  0
  -38.7570   -3.4300   -6.6850 C   0  0  0  0  0  0  0  0  0  0  0  0
  -36.2340    0.4400  -10.7700 H   0  0  0  0  0  0  0  0  0  0  0  0
  -36.4550    0.0860   -6.9360 H   0  0  0  0  0  0  0  0  0  0  0  0
  -39.1570   -1.1210   -7.5640 H   0  0  0  0  0  0  0  0  0  0  0  0
  -39.4720    0.4370   -8.9040 H   0  0  0  0  0  0  0  0  0  0  0  0
  -38.6250    1.2780  -10.1870 H   0  0  0  0  0  0  0  0  0  0  0  0
  -38.9190   -0.4530  -10.3130 H   0  0  0  0  0  0  0  0  0  0  0  0
  -36.6300   -2.5270   -5.5730 H   0  0  0  0  0  0  0  0  0  0  0  0
  -40.5260    1.3010   -4.5080 H   0  0  0  0  0  0  0  0  0  0  0  0
  -40.8210   -1.8690   -7.0510 H   0  0  0  0  0  0  0  0  0  0  0  0
  -41.3400   -2.7910   -5.7300 H   0  0  0  0  0  0  0  0  0  0  0  0
  -38.1360    2.1030   -4.3930 H   0  0  0  0  0  0  0  0  0  0  0  0
  -37.4410    0.7770   -3.4570 H   0  0  0  0  0  0  0  0  0  0  0  0
  -36.7640    1.2000   -5.0270 H   0  0  0  0  0  0  0  0  0  0  0  0
  -39.9530   -4.1590   -4.3820 H   0  0  0  0  0  0  0  0  0  0  0  0
  -38.4020   -3.4820   -3.8780 H   0  0  0  0  0  0  0  0  0  0  0  0
  -39.8650   -2.6330   -3.5160 H   0  0  0  0  0  0  0  0  0  0  0  0
  -39.2970   -4.3700   -6.5780 H   0  0  0  0  0  0  0  0  0  0  0  0
  -39.0110   -3.1510   -7.6970 H   0  0  0  0  0  0  0  0  0  0  0  0
  -37.7140   -3.7280   -6.6360 H   0  0  0  0  0  0  0  0  0  0  0  0
  1  2  1  0  0  0  0
  1 14  1  0  0  0  0
  1 16  2  0  0  0  0
  2  3  2  0  0  0  0
  2 20  1  0  0  0  0
  3  4  1  0  0  0  0
  3  6  1  0  0  0  0
  4  5  2  0  0  0  0
  4 21  1  0  0  0  0
  5 22  1  0  0  0  0
  6 23  1  0  0  0  0
  6 24  1  0  0  0  0
  6 25  1  0  0  0  0
  7  5  1  6  0  0  0
  7  8  1  0  0  0  0
  7  9  1  0  0  0  0
  7 15  1  0  0  0  0
  8 26  1  0  0  0  0
  9 10  2  0  0  0  0
  9 17  1  0  0  0  0
 10 11  1  0  0  0  0
 10 27  1  0  0  0  0
 11 12  2  0  0  0  0
 11 13  1  0  0  0  0
 13 15  1  0  0  0  0
 13 28  1  0  0  0  0
 13 29  1  0  0  0  0
 15 18  1  0  0  0  0
 15 19  1  0  0  0  0
 17 30  1  0  0  0  0
 17 31  1  0  0  0  0
 17 32  1  0  0  0  0
 18 33  1  0  0  0  0
 18 34  1  0  0  0  0
 18 35  1  0  0  0  0
 19 36  1  0  0  0  0
 19 37  1  0  0  0  0
 19 38  1  0  0  0  0
M  CHG  1  14  -1
M  END
>  <COMPND>
    title: molecule 1

$$$$
5GWP_ligand0.pdb
 OpenBabel06042612053D

 38 38  0  0  1  0  0  0  0  0999 V2000
  -23.7330    6.1200  -29.8680 C   0  0  0  0  0  0  0  0  0  0  0  0
  -24.9730    6.0770  -30.7470 C   0  0  0  0  0  0  0  0  0  0  0  0
  -25.0440    5.4620  -31.9390 C   0  0  0  0  0  0  0  0  0  0  0  0
  -23.9130    4.7540  -32.5170 C   0  0  0  0  0  0  0  0  0  0  0  0
  -23.9640    4.1420  -33.6960 C   0  0  0  0  0  0  0  0  0  0  0  0
  -26.3170    5.4950  -32.7020 C   0  0  0  0  0  0  0  0  0  0  0  0
  -22.7830    3.4230  -34.2510 C   0  0  1  0  0  0  0  0  0  0  0  0
  -21.6250    3.5100  -33.4690 O   0  0  0  0  0  0  0  0  0  0  0  0
  -23.1110    1.9510  -34.3680 C   0  0  0  0  0  0  0  0  0  0  0  0
  -23.6710    1.4220  -35.4500 C   0  0  0  0  0  0  0  0  0  0  0  0
  -23.8880    2.2130  -36.6630 C   0  0  0  0  0  0  0  0  0  0  0  0
  -24.3520    1.7020  -37.6700 O   0  0  0  0  0  0  0  0  0  0  0  0
  -23.5170    3.6810  -36.6340 C   0  0  0  0  0  0  0  0  0  0  0  0
  -23.4630    7.2260  -29.2980 O   0  5  0  0  0  0  0  0  0  0  0  0
  -22.4060    4.0450  -35.6290 C   0  0  0  0  0  0  0  0  0  0  0  0
  -23.0550    5.0980  -29.7350 O   0  0  0  0  0  0  0  0  0  0  0  0
  -23.0270    1.1500  -33.1230 C   0  0  0  0  0  0  0  0  0  0  0  0
  -21.0690    3.5090  -36.1520 C   0  0  0  0  0  0  0  0  0  0  0  0
  -22.3200    5.5670  -35.5620 C   0  0  0  0  0  0  0  0  0  0  0  0
  -25.8510    6.5770  -30.3700 H   0  0  0  0  0  0  0  0  0  0  0  0
  -22.9770    4.7350  -31.9950 H   0  0  0  0  0  0  0  0  0  0  0  0
  -24.8620    4.1290  -34.2920 H   0  0  0  0  0  0  0  0  0  0  0  0
  -26.1570    5.8560  -33.7160 H   0  0  0  0  0  0  0  0  0  0  0  0
  -26.7760    4.5110  -32.7340 H   0  0  0  0  0  0  0  0  0  0  0  0
  -27.0380    6.1710  -32.2420 H   0  0  0  0  0  0  0  0  0  0  0  0
  -21.8070    3.1650  -32.6060 H   0  0  0  0  0  0  0  0  0  0  0  0
  -23.9780    0.3860  -35.4680 H   0  0  0  0  0  0  0  0  0  0  0  0
  -24.4270    4.2410  -36.4230 H   0  0  0  0  0  0  0  0  0  0  0  0
  -23.2150    3.9770  -37.6340 H   0  0  0  0  0  0  0  0  0  0  0  0
  -23.4280    0.1450  -33.2580 H   0  0  0  0  0  0  0  0  0  0  0  0
  -21.9930    1.0410  -32.7960 H   0  0  0  0  0  0  0  0  0  0  0  0
  -23.5940    1.6220  -32.3200 H   0  0  0  0  0  0  0  0  0  0  0  0
  -20.8810    3.8530  -37.1700 H   0  0  0  0  0  0  0  0  0  0  0  0
  -20.2230    3.8520  -35.5550 H   0  0  0  0  0  0  0  0  0  0  0  0
  -21.0300    2.4200  -36.1740 H   0  0  0  0  0  0  0  0  0  0  0  0
  -21.9990    5.9860  -36.5120 H   0  0  0  0  0  0  0  0  0  0  0  0
  -23.2780    6.0270  -35.3370 H   0  0  0  0  0  0  0  0  0  0  0  0
  -21.6080    5.8990  -34.8050 H   0  0  0  0  0  0  0  0  0  0  0  0
  1  2  1  0  0  0  0
  1 14  1  0  0  0  0
  1 16  2  0  0  0  0
  2  3  2  0  0  0  0
  2 20  1  0  0  0  0
  3  4  1  0  0  0  0
  3  6  1  0  0  0  0
  4  5  2  0  0  0  0
  4 21  1  0  0  0  0
  5 22  1  0  0  0  0
  6 23  1  0  0  0  0
  6 24  1  0  0  0  0
  6 25  1  0  0  0  0
  7  5  1  1  0  0  0
  7  8  1  0  0  0  0
  7  9  1  0  0  0  0
  7 15  1  0  0  0  0
  8 26  1  0  0  0  0
  9 10  2  0  0  0  0
  9 17  1  0  0  0  0
 10 11  1  0  0  0  0
 10 27  1  0  0  0  0
 11 12  2  0  0  0  0
 11 13  1  0  0  0  0
 13 15  1  0  0  0  0
 13 28  1  0  0  0  0
 13 29  1  0  0  0  0
 15 18  1  0  0  0  0
 15 19  1  0  0  0  0
 17 30  1  0  0  0  0
 17 31  1  0  0  0  0
 17 32  1  0  0  0  0
 18 33  1  0  0  0  0
 18 34  1  0  0  0  0
 18 35  1  0  0  0  0
 19 36  1  0  0  0  0
 19 37  1  0  0  0  0
 19 38  1  0  0  0  0
M  CHG  1  14  -1
M  END
>  <COMPND>
    title: molecule 1

$$$$
5JO2_ligand0.pdb
 OpenBabel06042612053D

 38 38  0  0  1  0  0  0  0  0999 V2000
   13.7220  -53.8290  -22.1430 C   0  0  0  0  0  0  0  0  0  0  0  0
   15.1940  -53.6530  -22.3210 C   0  0  0  0  0  0  0  0  0  0  0  0
   15.7460  -53.5730  -23.5690 C   0  0  0  0  0  0  0  0  0  0  0  0
   15.1590  -52.6400  -24.5730 C   0  0  0  0  0  0  0  0  0  0  0  0
   15.9670  -52.0050  -25.4740 C   0  0  0  0  0  0  0  0  0  0  0  0
   17.1310  -54.0820  -23.7850 C   0  0  0  0  0  0  0  0  0  0  0  0
   15.4520  -50.8570  -26.2780 C   0  0  1  0  0  0  0  0  0  0  0  0
   14.1550  -50.5860  -25.8940 O   0  0  0  0  0  0  0  0  0  0  0  0
   16.3040  -49.6460  -25.9630 C   0  0  0  0  0  0  0  0  0  0  0  0
   17.5520  -49.4160  -26.7440 C   0  0  0  0  0  0  0  0  0  0  0  0
   17.7700  -50.2430  -27.9630 C   0  0  0  0  0  0  0  0  0  0  0  0
   18.7240  -50.0100  -28.6920 O   0  0  0  0  0  0  0  0  0  0  0  0
   16.8350  -51.3570  -28.2960 C   0  0  0  0  0  0  0  0  0  0  0  0
   13.2740  -54.8930  -21.6410 O   0  5  0  0  0  0  0  0  0  0  0  0
   15.4590  -51.2070  -27.7350 C   0  0  0  0  0  0  0  0  0  0  0  0
   12.9260  -52.9160  -22.4870 O   0  0  0  0  0  0  0  0  0  0  0  0
   15.8420  -48.6380  -24.9690 C   0  0  0  0  0  0  0  0  0  0  0  0
   14.7290  -52.4930  -27.9480 C   0  0  0  0  0  0  0  0  0  0  0  0
   14.7290  -50.1520  -28.4970 C   0  0  0  0  0  0  0  0  0  0  0  0
   15.8240  -53.8820  -21.4750 H   0  0  0  0  0  0  0  0  0  0  0  0
   14.1000  -52.4580  -24.5360 H   0  0  0  0  0  0  0  0  0  0  0  0
   17.0180  -52.2310  -25.5720 H   0  0  0  0  0  0  0  0  0  0  0  0
   17.2300  -54.5210  -24.7770 H   0  0  0  0  0  0  0  0  0  0  0  0
   17.8660  -53.2850  -23.6680 H   0  0  0  0  0  0  0  0  0  0  0  0
   17.3610  -54.8580  -23.0570 H   0  0  0  0  0  0  0  0  0  0  0  0
   14.1160  -50.5470  -24.9480 H   0  0  0  0  0  0  0  0  0  0  0  0
   18.1750  -48.5500  -26.5770 H   0  0  0  0  0  0  0  0  0  0  0  0
   17.2830  -52.2740  -27.9460 H   0  0  0  0  0  0  0  0  0  0  0  0
   16.7830  -51.4580  -29.3780 H   0  0  0  0  0  0  0  0  0  0  0  0
   16.6190  -47.8980  -24.7740 H   0  0  0  0  0  0  0  0  0  0  0  0
   14.9600  -48.1110  -25.3360 H   0  0  0  0  0  0  0  0  0  0  0  0
   15.5920  -49.1160  -24.0220 H   0  0  0  0  0  0  0  0  0  0  0  0
   14.6660  -52.7300  -29.0110 H   0  0  0  0  0  0  0  0  0  0  0  0
   15.2210  -53.3550  -27.4970 H   0  0  0  0  0  0  0  0  0  0  0  0
   13.7030  -52.4690  -27.5770 H   0  0  0  0  0  0  0  0  0  0  0  0
   14.7470  -50.3650  -29.5660 H   0  0  0  0  0  0  0  0  0  0  0  0
   13.6750  -50.0500  -28.2330 H   0  0  0  0  0  0  0  0  0  0  0  0
   15.1990  -49.1790  -28.3930 H   0  0  0  0  0  0  0  0  0  0  0  0
  1  2  1  0  0  0  0
  1 14  1  0  0  0  0
  1 16  2  0  0  0  0
  2  3  2  0  0  0  0
  2 20  1  0  0  0  0
  3  4  1  0  0  0  0
  3  6  1  0  0  0  0
  4  5  2  0  0  0  0
  4 21  1  0  0  0  0
  5 22  1  0  0  0  0
  6 23  1  0  0  0  0
  6 24  1  0  0  0  0
  6 25  1  0  0  0  0
  7  5  1  1  0  0  0
  7  8  1  0  0  0  0
  7  9  1  0  0  0  0
  7 15  1  0  0  0  0
  8 26  1  0  0  0  0
  9 10  2  0  0  0  0
  9 17  1  0  0  0  0
 10 11  1  0  0  0  0
 10 27  1  0  0  0  0
 11 12  2  0  0  0  0
 11 13  1  0  0  0  0
 13 15  1  0  0  0  0
 13 28  1  0  0  0  0
 13 29  1  0  0  0  0
 15 18  1  0  0  0  0
 15 19  1  0  0  0  0
 17 30  1  0  0  0  0
 17 31  1  0  0  0  0
 17 32  1  0  0  0  0
 18 33  1  0  0  0  0
 18 34  1  0  0  0  0
 18 35  1  0  0  0  0
 19 36  1  0  0  0  0
 19 37  1  0  0  0  0
 19 38  1  0  0  0  0
M  CHG  1  14  -1
M  END
>  <COMPND>
    title: molecule 1

$$$$
5M36_ligand0.pdb
 OpenBabel06042612053D

 80 92  0  0  1  0  0  0  0  0999 V2000
  -41.3550  -14.0010   15.8820 O   0  5  0  0  0  0  0  0  0  0  0  0
  -42.4890  -14.3820   14.7910 P   0  3  0  0  0  0  0  0  0  0  0  0
  -41.9810  -15.6160   14.1160 O   0  0  0  0  0  0  0  0  0  0  0  0
  -43.8140  -14.6010   15.4230 O   0  0  0  0  0  0  0  0  0  0  0  0
  -42.4820  -13.2150   13.6840 O   0  0  0  0  0  0  0  0  0  0  0  0
  -43.2850  -12.0810   13.8560 C   0  0  0  0  0  0  0  0  0  0  0  0
  -42.7650  -10.9860   14.5360 C   0  0  0  0  0  0  0  0  0  0  0  0
  -41.4340  -10.6830   15.2150 C   0  0  2  0  0  0  0  0  0  0  0  0
  -41.9580   -9.8310   16.4010 C   0  0  0  0  0  0  0  0  0  0  0  0
  -40.8170   -9.5750   14.3810 C   0  0  0  0  0  0  0  0  0  0  0  0
  -39.6900   -9.5020   13.5690 C   0  0  0  0  0  0  0  0  0  0  0  0
  -39.3530   -8.3220   12.9190 C   0  0  0  0  0  0  0  0  0  0  0  0
  -38.2230   -7.9290   11.9880 C   0  0  2  0  0  0  0  0  0  0  0  0
  -38.0180   -6.4490   12.4790 C   0  0  0  0  0  0  0  0  0  0  0  0
  -38.8880   -7.6360   10.6620 C   0  0  0  0  0  0  0  0  0  0  0  0
  -38.8050   -8.2780    9.4430 C   0  0  0  0  0  0  0  0  0  0  0  0
  -39.5430   -7.7790    8.3630 C   0  0  0  0  0  0  0  0  0  0  0  0
  -40.3510   -6.6380    8.5350 C   0  0  0  0  0  0  0  0  0  0  0  0
  -40.4110   -6.0100    9.7850 C   0  0  0  0  0  0  0  0  0  0  0  0
  -39.6730   -6.5280   10.8290 C   0  0  0  0  0  0  0  0  0  0  0  0
  -39.5320   -6.0810   12.2660 C   0  0  1  0  0  0  0  0  0  0  0  0
  -40.1540   -7.1920   13.0900 C   0  0  0  0  0  0  0  0  0  0  0  0
  -41.2750   -7.2660   13.9070 C   0  0  0  0  0  0  0  0  0  0  0  0
  -41.6110   -8.4480   14.5610 C   0  0  0  0  0  0  0  0  0  0  0  0
  -42.7350   -8.8460   15.4860 C   0  0  1  0  0  0  0  0  0  0  0  0
  -43.5790   -9.8500   14.7160 C   0  0  0  0  0  0  0  0  0  0  0  0
  -44.8660   -9.8520   14.1930 C   0  0  0  0  0  0  0  0  0  0  0  0
  -45.6700   -8.7190   14.3640 O   0  0  0  0  0  0  0  0  0  0  0  0
  -45.9410   -7.7270   13.1180 P   0  3  0  0  0  0  0  0  0  0  0  0
  -47.1610   -8.3210   12.3760 O   0  5  0  0  0  0  0  0  0  0  0  0
  -46.4430   -6.4050   13.7450 O   0  0  0  0  0  0  0  0  0  0  0  0
  -44.7590   -7.5480   12.2460 O   0  0  0  0  0  0  0  0  0  0  0  0
  -45.3800  -10.9450   13.5040 C   0  0  0  0  0  0  0  0  0  0  0  0
  -44.5760  -12.0870   13.3400 C   0  0  0  0  0  0  0  0  0  0  0  0
  -45.3990  -13.0890   12.5630 C   0  0  1  0  0  0  0  0  0  0  0  0
  -46.8020  -12.7620   13.1630 C   0  0  0  0  0  0  0  0  0  0  0  0
  -46.7210  -11.2320   12.8480 C   0  0  2  0  0  0  0  0  0  0  0  0
  -46.3810  -11.3420   11.3820 C   0  0  0  0  0  0  0  0  0  0  0  0
  -45.5940  -12.4690   11.2110 C   0  0  0  0  0  0  0  0  0  0  0  0
  -45.1380  -12.8050    9.9420 C   0  0  0  0  0  0  0  0  0  0  0  0
  -45.4700  -12.0350    8.8360 C   0  0  0  0  0  0  0  0  0  0  0  0
  -45.1390  -12.1430    7.3670 C   0  0  1  0  0  0  0  0  0  0  0  0
  -46.4880  -11.5950    6.7820 C   0  0  0  0  0  0  0  0  0  0  0  0
  -44.2770  -10.9270    7.1210 C   0  0  0  0  0  0  0  0  0  0  0  0
  -42.9420  -10.8140    6.7890 C   0  0  0  0  0  0  0  0  0  0  0  0
  -42.3920   -9.5390    6.6190 C   0  0  0  0  0  0  0  0  0  0  0  0
  -43.2000   -8.3980    6.7880 C   0  0  0  0  0  0  0  0  0  0  0  0
  -44.5490   -8.5440    7.1250 C   0  0  0  0  0  0  0  0  0  0  0  0
  -45.0650   -9.8140    7.2860 C   0  0  0  0  0  0  0  0  0  0  0  0
  -46.4560  -10.2820    7.6420 C   0  0  2  0  0  0  0  0  0  0  0  0
  -46.2670  -10.9090    9.0030 C   0  0  0  0  0  0  0  0  0  0  0  0
  -46.7180  -10.5720   10.2730 C   0  0  0  0  0  0  0  0  0  0  0  0
  -40.7890  -11.5270   15.4550 H   0  0  0  0  0  0  0  0  0  0  0  0
  -41.1620   -9.3540   16.9760 H   0  0  0  0  0  0  0  0  0  0  0  0
  -42.6000  -10.3900   17.0850 H   0  0  0  0  0  0  0  0  0  0  0  0
  -39.0710  -10.3780   13.4420 H   0  0  0  0  0  0  0  0  0  0  0  0
  -37.3320   -8.5420   11.9960 H   0  0  0  0  0  0  0  0  0  0  0  0
  -37.3360   -5.8710   11.8520 H   0  0  0  0  0  0  0  0  0  0  0  0
  -37.7110   -6.3630   13.5210 H   0  0  0  0  0  0  0  0  0  0  0  0
  -38.1780   -9.1490    9.3260 H   0  0  0  0  0  0  0  0  0  0  0  0
  -39.4940   -8.2580    7.3980 H   0  0  0  0  0  0  0  0  0  0  0  0
  -40.9170   -6.2450    7.7040 H   0  0  0  0  0  0  0  0  0  0  0  0
  -41.0100   -5.1200    9.9210 H   0  0  0  0  0  0  0  0  0  0  0  0
  -39.8310   -5.0590   12.5020 H   0  0  0  0  0  0  0  0  0  0  0  0
  -41.9000   -6.3950   14.0360 H   0  0  0  0  0  0  0  0  0  0  0  0
  -43.2730   -8.0370   15.9800 H   0  0  0  0  0  0  0  0  0  0  0  0
  -45.0740  -14.1290   12.5960 H   0  0  0  0  0  0  0  0  0  0  0  0
  -46.8720  -12.9790   14.2310 H   0  0  0  0  0  0  0  0  0  0  0  0
  -47.6250  -13.2640   12.6500 H   0  0  0  0  0  0  0  0  0  0  0  0
  -47.5190  -10.7490   13.3390 H   0  0  0  0  0  0  0  0  0  0  0  0
  -44.5170  -13.6790    9.8160 H   0  0  0  0  0  0  0  0  0  0  0  0
  -44.7790  -13.1050    7.0030 H   0  0  0  0  0  0  0  0  0  0  0  0
  -47.3470  -12.2340    6.9960 H   0  0  0  0  0  0  0  0  0  0  0  0
  -46.4560  -11.3920    5.7110 H   0  0  0  0  0  0  0  0  0  0  0  0
  -42.3320  -11.6960    6.6670 H   0  0  0  0  0  0  0  0  0  0  0  0
  -41.3510   -9.4110    6.3750 H   0  0  0  0  0  0  0  0  0  0  0  0
  -42.7800   -7.4120    6.6560 H   0  0  0  0  0  0  0  0  0  0  0  0
  -45.1790   -7.6770    7.2570 H   0  0  0  0  0  0  0  0  0  0  0  0
  -47.2770   -9.5750    7.5190 H   0  0  0  0  0  0  0  0  0  0  0  0
  -47.3530   -9.7080   10.3870 H   0  0  0  0  0  0  0  0  0  0  0  0
  1  2  1  0  0  0  0
  2  3  2  0  0  0  0
  2  4  2  0  0  0  0
  2  5  1  0  0  0  0
  5  6  1  0  0  0  0
  6  7  2  0  0  0  0
  6 34  1  0  0  0  0
  7  8  1  0  0  0  0
  7 26  1  0  0  0  0
  8  9  1  0  0  0  0
  8 10  1  0  0  0  0
  8 53  1  1  0  0  0
  9 25  1  0  0  0  0
  9 54  1  0  0  0  0
  9 55  1  0  0  0  0
 10 11  2  0  0  0  0
 10 24  1  0  0  0  0
 11 12  1  0  0  0  0
 11 56  1  0  0  0  0
 12 13  1  0  0  0  0
 12 22  2  0  0  0  0
 13 14  1  0  0  0  0
 13 15  1  0  0  0  0
 13 57  1  6  0  0  0
 14 21  1  0  0  0  0
 14 58  1  0  0  0  0
 14 59  1  0  0  0  0
 15 16  2  0  0  0  0
 15 20  1  0  0  0  0
 16 17  1  0  0  0  0
 16 60  1  0  0  0  0
 17 18  2  0  0  0  0
 17 61  1  0  0  0  0
 18 19  1  0  0  0  0
 18 62  1  0  0  0  0
 19 20  2  0  0  0  0
 19 63  1  0  0  0  0
 20 21  1  0  0  0  0
 21 22  1  0  0  0  0
 21 64  1  1  0  0  0
 22 23  1  0  0  0  0
 23 24  2  0  0  0  0
 23 65  1  0  0  0  0
 24 25  1  0  0  0  0
 25 26  1  0  0  0  0
 25 66  1  1  0  0  0
 26 27  2  0  0  0  0
 27 28  1  0  0  0  0
 27 33  1  0  0  0  0
 28 29  1  0  0  0  0
 29 30  1  0  0  0  0
 29 31  2  0  0  0  0
 29 32  2  0  0  0  0
 33 34  2  0  0  0  0
 33 37  1  0  0  0  0
 34 35  1  0  0  0  0
 35 36  1  0  0  0  0
 35 39  1  0  0  0  0
 35 67  1  1  0  0  0
 36 37  1  0  0  0  0
 36 68  1  0  0  0  0
 36 69  1  0  0  0  0
 37 38  1  0  0  0  0
 37 70  1  1  0  0  0
 38 39  2  0  0  0  0
 38 52  1  0  0  0  0
 39 40  1  0  0  0  0
 40 41  2  0  0  0  0
 40 71  1  0  0  0  0
 41 42  1  0  0  0  0
 41 51  1  0  0  0  0
 42 43  1  0  0  0  0
 42 44  1  0  0  0  0
 42 72  1  6  0  0  0
 43 50  1  0  0  0  0
 43 73  1  0  0  0  0
 43 74  1  0  0  0  0
 44 45  2  0  0  0  0
 44 49  1  0  0  0  0
 45 46  1  0  0  0  0
 45 75  1  0  0  0  0
 46 47  2  0  0  0  0
 46 76  1  0  0  0  0
 47 48  1  0  0  0  0
 47 77  1  0  0  0  0
 48 49  2  0  0  0  0
 48 78  1  0  0  0  0
 49 50  1  0  0  0  0
 50 51  1  0  0  0  0
 50 79  1  6  0  0  0
 51 52  2  0  0  0  0
 52 80  1  0  0  0  0
M  CHG  4   1  -1   2   1  29   1  30  -1
M  END
>  <COMPND>
    title: molecule 1

$$$$
5M37_ligand0.pdb
 OpenBabel06042612053D

 80 92  0  0  1  0  0  0  0  0999 V2000
  -21.4020   11.9480  -15.9330 O   0  5  0  0  0  0  0  0  0  0  0  0
  -20.0360   11.9560  -15.0740 P   0  3  0  0  0  0  0  0  0  0  0  0
  -18.8650   11.6780  -16.1500 O   0  0  0  0  0  0  0  0  0  0  0  0
  -19.8380   13.2390  -14.3590 O   0  0  0  0  0  0  0  0  0  0  0  0
  -20.0860   10.6830  -14.1060 O   0  0  0  0  0  0  0  0  0  0  0  0
  -20.9610    9.6250  -14.3670 C   0  0  0  0  0  0  0  0  0  0  0  0
  -20.4990    8.5410  -15.0970 C   0  0  0  0  0  0  0  0  0  0  0  0
  -19.1750    8.2030  -15.7710 C   0  0  2  0  0  0  0  0  0  0  0  0
  -19.7250    7.4580  -17.0160 C   0  0  0  0  0  0  0  0  0  0  0  0
  -18.6370    7.0170  -15.0010 C   0  0  0  0  0  0  0  0  0  0  0  0
  -17.5270    6.8310  -14.1850 C   0  0  0  0  0  0  0  0  0  0  0  0
  -17.2650    5.6000  -13.6030 C   0  0  0  0  0  0  0  0  0  0  0  0
  -16.1670    5.0890  -12.6910 C   0  0  2  0  0  0  0  0  0  0  0  0
  -16.0390    3.6330  -13.2720 C   0  0  0  0  0  0  0  0  0  0  0  0
  -16.8540    4.7530  -11.3900 C   0  0  0  0  0  0  0  0  0  0  0  0
  -16.7400    5.3100  -10.1330 C   0  0  0  0  0  0  0  0  0  0  0  0
  -17.5070    4.7850   -9.0880 C   0  0  0  0  0  0  0  0  0  0  0  0
  -18.3740    3.7030   -9.3330 C   0  0  0  0  0  0  0  0  0  0  0  0
  -18.4630    3.1590  -10.6190 C   0  0  0  0  0  0  0  0  0  0  0  0
  -17.6960    3.7020  -11.6280 C   0  0  0  0  0  0  0  0  0  0  0  0
  -17.5710    3.3380  -13.0900 C   0  0  1  0  0  0  0  0  0  0  0  0
  -18.1240    4.5300  -13.8490 C   0  0  0  0  0  0  0  0  0  0  0  0
  -19.2290    4.7150  -14.6750 C   0  0  0  0  0  0  0  0  0  0  0  0
  -19.4930    5.9530  -15.2560 C   0  0  0  0  0  0  0  0  0  0  0  0
  -20.5780    6.4710  -16.1780 C   0  0  1  0  0  0  0  0  0  0  0  0
  -21.3810    7.4780  -15.3680 C   0  0  0  0  0  0  0  0  0  0  0  0
  -22.6790    7.5300  -14.8670 C   0  0  0  0  0  0  0  0  0  0  0  0
  -23.5630    6.4770  -15.1480 O   0  0  0  0  0  0  0  0  0  0  0  0
  -23.8850    5.2310  -14.1780 P   0  3  0  0  0  0  0  0  0  0  0  0
  -24.8840    4.3660  -14.9800 O   0  5  0  0  0  0  0  0  0  0  0  0
  -22.6040    4.3870  -14.1280 O   0  0  0  0  0  0  0  0  0  0  0  0
  -24.4080    5.6040  -12.8490 O   0  0  0  0  0  0  0  0  0  0  0  0
  -23.1360    8.6200  -14.1310 C   0  0  0  0  0  0  0  0  0  0  0  0
  -22.2580    9.6890  -13.8790 C   0  0  0  0  0  0  0  0  0  0  0  0
  -23.0250   10.7020  -13.0630 C   0  0  1  0  0  0  0  0  0  0  0  0
  -24.4330   10.5090  -13.7030 C   0  0  0  0  0  0  0  0  0  0  0  0
  -24.4640    8.9640  -13.4790 C   0  0  2  0  0  0  0  0  0  0  0  0
  -24.1280    8.9670  -12.0020 C   0  0  0  0  0  0  0  0  0  0  0  0
  -23.2720   10.0250  -11.7570 C   0  0  0  0  0  0  0  0  0  0  0  0
  -22.8030   10.2570  -10.4720 C   0  0  0  0  0  0  0  0  0  0  0  0
  -23.1920    9.4520   -9.4150 C   0  0  0  0  0  0  0  0  0  0  0  0
  -22.8620    9.4560   -7.9440 C   0  0  1  0  0  0  0  0  0  0  0  0
  -24.2440    8.9580   -7.3940 C   0  0  0  0  0  0  0  0  0  0  0  0
  -22.0790    8.1780   -7.7790 C   0  0  0  0  0  0  0  0  0  0  0  0
  -20.7530    7.9620   -7.4640 C   0  0  0  0  0  0  0  0  0  0  0  0
  -20.2820    6.6490   -7.3780 C   0  0  0  0  0  0  0  0  0  0  0  0
  -21.1590    5.5740   -7.6140 C   0  0  0  0  0  0  0  0  0  0  0  0
  -22.4970    5.8230   -7.9330 C   0  0  0  0  0  0  0  0  0  0  0  0
  -22.9350    7.1290   -8.0100 C   0  0  0  0  0  0  0  0  0  0  0  0
  -24.2950    7.7010   -8.3300 C   0  0  2  0  0  0  0  0  0  0  0  0
  -24.0590    8.3930   -9.6510 C   0  0  0  0  0  0  0  0  0  0  0  0
  -24.5220    8.1580  -10.9410 C   0  0  0  0  0  0  0  0  0  0  0  0
  -18.4850    9.0270  -15.9510 H   0  0  0  0  0  0  0  0  0  0  0  0
  -18.9560    6.9790  -17.6180 H   0  0  0  0  0  0  0  0  0  0  0  0
  -20.3230    8.0970  -17.6690 H   0  0  0  0  0  0  0  0  0  0  0  0
  -16.8720    7.6640  -13.9960 H   0  0  0  0  0  0  0  0  0  0  0  0
  -15.2460    5.6610  -12.6470 H   0  0  0  0  0  0  0  0  0  0  0  0
  -15.4000    2.9870  -12.6700 H   0  0  0  0  0  0  0  0  0  0  0  0
  -15.7040    3.6040  -14.3110 H   0  0  0  0  0  0  0  0  0  0  0  0
  -16.0680    6.1370   -9.9580 H   0  0  0  0  0  0  0  0  0  0  0  0
  -17.4280    5.2020   -8.0950 H   0  0  0  0  0  0  0  0  0  0  0  0
  -18.9620    3.2870   -8.5280 H   0  0  0  0  0  0  0  0  0  0  0  0
  -19.1170    2.3230  -10.8200 H   0  0  0  0  0  0  0  0  0  0  0  0
  -17.9230    2.3500  -13.3890 H   0  0  0  0  0  0  0  0  0  0  0  0
  -19.9030    3.8910  -14.8600 H   0  0  0  0  0  0  0  0  0  0  0  0
  -21.1500    5.7240  -16.7290 H   0  0  0  0  0  0  0  0  0  0  0  0
  -22.6270   11.7160  -13.0330 H   0  0  0  0  0  0  0  0  0  0  0  0
  -24.4690   10.7920  -14.7570 H   0  0  0  0  0  0  0  0  0  0  0  0
  -25.2280   11.0370  -13.1710 H   0  0  0  0  0  0  0  0  0  0  0  0
  -25.3600    8.5010  -13.8510 H   0  0  0  0  0  0  0  0  0  0  0  0
  -22.1240   11.0780  -10.2950 H   0  0  0  0  0  0  0  0  0  0  0  0
  -22.4420   10.3690   -7.5230 H   0  0  0  0  0  0  0  0  0  0  0  0
  -25.0600    9.6620   -7.5660 H   0  0  0  0  0  0  0  0  0  0  0  0
  -24.2070    8.7120   -6.3330 H   0  0  0  0  0  0  0  0  0  0  0  0
  -20.0880    8.7950   -7.2880 H   0  0  0  0  0  0  0  0  0  0  0  0
  -19.2470    6.4600   -7.1360 H   0  0  0  0  0  0  0  0  0  0  0  0
  -20.7550    4.5840   -7.5740 H   0  0  0  0  0  0  0  0  0  0  0  0
  -23.1750    5.0070   -8.1320 H   0  0  0  0  0  0  0  0  0  0  0  0
  -25.1570    7.0390   -8.2490 H   0  0  0  0  0  0  0  0  0  0  0  0
  -25.2010    7.3380  -11.1200 H   0  0  0  0  0  0  0  0  0  0  0  0
  1  2  1  0  0  0  0
  2  3  2  0  0  0  0
  2  4  2  0  0  0  0
  2  5  1  0  0  0  0
  5  6  1  0  0  0  0
  6  7  2  0  0  0  0
  6 34  1  0  0  0  0
  7  8  1  0  0  0  0
  7 26  1  0  0  0  0
  8  9  1  0  0  0  0
  8 10  1  0  0  0  0
  8 53  1  6  0  0  0
  9 25  1  0  0  0  0
  9 54  1  0  0  0  0
  9 55  1  0  0  0  0
 10 11  2  0  0  0  0
 10 24  1  0  0  0  0
 11 12  1  0  0  0  0
 11 56  1  0  0  0  0
 12 13  1  0  0  0  0
 12 22  2  0  0  0  0
 13 14  1  0  0  0  0
 13 15  1  0  0  0  0
 13 57  1  1  0  0  0
 14 21  1  0  0  0  0
 14 58  1  0  0  0  0
 14 59  1  0  0  0  0
 15 16  2  0  0  0  0
 15 20  1  0  0  0  0
 16 17  1  0  0  0  0
 16 60  1  0  0  0  0
 17 18  2  0  0  0  0
 17 61  1  0  0  0  0
 18 19  1  0  0  0  0
 18 62  1  0  0  0  0
 19 20  2  0  0  0  0
 19 63  1  0  0  0  0
 20 21  1  0  0  0  0
 21 22  1  0  0  0  0
 21 64  1  6  0  0  0
 22 23  1  0  0  0  0
 23 24  2  0  0  0  0
 23 65  1  0  0  0  0
 24 25  1  0  0  0  0
 25 26  1  0  0  0  0
 25 66  1  6  0  0  0
 26 27  2  0  0  0  0
 27 28  1  0  0  0  0
 27 33  1  0  0  0  0
 28 29  1  0  0  0  0
 29 30  1  0  0  0  0
 29 31  2  0  0  0  0
 29 32  2  0  0  0  0
 33 34  2  0  0  0  0
 33 37  1  0  0  0  0
 34 35  1  0  0  0  0
 35 36  1  0  0  0  0
 35 39  1  0  0  0  0
 35 67  1  1  0  0  0
 36 37  1  0  0  0  0
 36 68  1  0  0  0  0
 36 69  1  0  0  0  0
 37 38  1  0  0  0  0
 37 70  1  6  0  0  0
 38 39  2  0  0  0  0
 38 52  1  0  0  0  0
 39 40  1  0  0  0  0
 40 41  2  0  0  0  0
 40 71  1  0  0  0  0
 41 42  1  0  0  0  0
 41 51  1  0  0  0  0
 42 43  1  0  0  0  0
 42 44  1  0  0  0  0
 42 72  1  1  0  0  0
 43 50  1  0  0  0  0
 43 73  1  0  0  0  0
 43 74  1  0  0  0  0
 44 45  2  0  0  0  0
 44 49  1  0  0  0  0
 45 46  1  0  0  0  0
 45 75  1  0  0  0  0
 46 47  2  0  0  0  0
 46 76  1  0  0  0  0
 47 48  1  0  0  0  0
 47 77  1  0  0  0  0
 48 49  2  0  0  0  0
 48 78  1  0  0  0  0
 49 50  1  0  0  0  0
 50 51  1  0  0  0  0
 50 79  1  1  0  0  0
 51 52  2  0  0  0  0
 52 80  1  0  0  0  0
M  CHG  4   1  -1   2   1  29   1  30  -1
M  END
>  <COMPND>
    title: molecule 1

$$$$
5MN0_ligand0.pdb
 OpenBabel06042612053D

 38 38  0  0  1  0  0  0  0  0999 V2000
    0.2420    6.2190   36.6440 C   0  0  0  0  0  0  0  0  0  0  0  0
    1.6850    6.5460   36.5050 C   0  0  0  0  0  0  0  0  0  0  0  0
    2.3910    6.6380   35.3600 C   0  0  0  0  0  0  0  0  0  0  0  0
    1.7920    6.4410   34.0190 C   0  0  0  0  0  0  0  0  0  0  0  0
    2.5040    6.5130   32.8890 C   0  0  0  0  0  0  0  0  0  0  0  0
    3.8590    6.9630   35.4930 C   0  0  0  0  0  0  0  0  0  0  0  0
    1.9030    6.3050   31.5080 C   0  0  1  0  0  0  0  0  0  0  0  0
    0.5090    5.9630   31.5890 O   0  0  0  0  0  0  0  0  0  0  0  0
    2.1250    7.6180   30.7940 C   0  0  0  0  0  0  0  0  0  0  0  0
    3.2020    7.8080   30.0150 C   0  0  0  0  0  0  0  0  0  0  0  0
    4.2340    6.7680   29.8660 C   0  0  0  0  0  0  0  0  0  0  0  0
    5.2370    6.9960   29.2070 O   0  0  0  0  0  0  0  0  0  0  0  0
    4.0600    5.4260   30.5330 C   0  0  0  0  0  0  0  0  0  0  0  0
   -0.2160    6.1170   37.8040 O   0  5  0  0  0  0  0  0  0  0  0  0
    2.5920    5.1350   30.7960 C   0  0  0  0  0  0  0  0  0  0  0  0
   -0.4960    6.0220   35.6650 O   0  0  0  0  0  0  0  0  0  0  0  0
    1.1700    8.7530   31.0080 C   0  0  0  0  0  0  0  0  0  0  0  0
    1.9420    4.8730   29.4340 C   0  0  0  0  0  0  0  0  0  0  0  0
    2.4380    3.8670   31.6400 C   0  0  0  0  0  0  0  0  0  0  0  0
    2.2030    6.7200   37.4360 H   0  0  0  0  0  0  0  0  0  0  0  0
    0.7540    6.2360   33.8900 H   0  0  0  0  0  0  0  0  0  0  0  0
    3.5600    6.7300   32.9220 H   0  0  0  0  0  0  0  0  0  0  0  0
    4.1570    7.7520   34.8030 H   0  0  0  0  0  0  0  0  0  0  0  0
    4.1170    7.3080   36.4950 H   0  0  0  0  0  0  0  0  0  0  0  0
    4.4520    6.0730   35.2900 H   0  0  0  0  0  0  0  0  0  0  0  0
    0.4320    5.1230   32.0160 H   0  0  0  0  0  0  0  0  0  0  0  0
    3.3690    8.7540   29.5210 H   0  0  0  0  0  0  0  0  0  0  0  0
    4.6220    5.4400   31.4620 H   0  0  0  0  0  0  0  0  0  0  0  0
    4.5030    4.6420   29.9300 H   0  0  0  0  0  0  0  0  0  0  0  0
    1.4810    9.6600   30.4880 H   0  0  0  0  0  0  0  0  0  0  0  0
    0.1830    8.4780   30.6380 H   0  0  0  0  0  0  0  0  0  0  0  0
    1.0820    8.9870   32.0680 H   0  0  0  0  0  0  0  0  0  0  0  0
    2.4600    4.0800   28.8960 H   0  0  0  0  0  0  0  0  0  0  0  0
    0.9080    4.5410   29.5290 H   0  0  0  0  0  0  0  0  0  0  0  0
    1.9330    5.7470   28.7870 H   0  0  0  0  0  0  0  0  0  0  0  0
    2.8950    3.0190   31.1270 H   0  0  0  0  0  0  0  0  0  0  0  0
    2.9390    3.9500   32.6040 H   0  0  0  0  0  0  0  0  0  0  0  0
    1.3990    3.5930   31.8240 H   0  0  0  0  0  0  0  0  0  0  0  0
  1  2  1  0  0  0  0
  1 14  1  0  0  0  0
  1 16  2  0  0  0  0
  2  3  2  0  0  0  0
  2 20  1  0  0  0  0
  3  4  1  0  0  0  0
  3  6  1  0  0  0  0
  4  5  2  0  0  0  0
  4 21  1  0  0  0  0
  5 22  1  0  0  0  0
  6 23  1  0  0  0  0
  6 24  1  0  0  0  0
  6 25  1  0  0  0  0
  7  5  1  1  0  0  0
  7  8  1  0  0  0  0
  7  9  1  0  0  0  0
  7 15  1  0  0  0  0
  8 26  1  0  0  0  0
  9 10  2  0  0  0  0
  9 17  1  0  0  0  0
 10 11  1  0  0  0  0
 10 27  1  0  0  0  0
 11 12  2  0  0  0  0
 11 13  1  0  0  0  0
 13 15  1  0  0  0  0
 13 28  1  0  0  0  0
 13 29  1  0  0  0  0
 15 18  1  0  0  0  0
 15 19  1  0  0  0  0
 17 30  1  0  0  0  0
 17 31  1  0  0  0  0
 17 32  1  0  0  0  0
 18 33  1  0  0  0  0
 18 34  1  0  0  0  0
 18 35  1  0  0  0  0
 19 36  1  0  0  0  0
 19 37  1  0  0  0  0
 19 38  1  0  0  0  0
M  CHG  1  14  -1
M  END
>  <COMPND>
    title: molecule 1

$$$$
5MXO_ligand0.pdb
 OpenBabel06042612053D

104107  0  0  1  0  0  0  0  0999 V2000
  -17.9110  -19.1310   -0.6460 C   0  0  0  0  0  0  0  0  0  0  0  0
  -16.7280  -18.3390   -0.2760 C   0  0  0  0  0  0  0  0  0  0  0  0
  -15.2900  -18.6700   -0.5220 C   0  0  2  0  0  0  0  0  0  0  0  0
  -14.6020  -18.9590    0.7920 C   0  0  0  0  0  0  0  0  0  0  0  0
  -14.6580  -17.5530   -1.2550 C   0  0  0  0  0  0  0  0  0  0  0  0
  -13.3860  -18.0210   -1.6960 O   0  0  0  0  0  0  0  0  0  0  0  0
  -12.5750  -17.1460   -2.3330 C   0  0  0  0  0  0  0  0  0  0  0  0
  -12.8900  -16.0150   -2.5340 O   0  0  0  0  0  0  0  0  0  0  0  0
  -11.2820  -17.8100   -2.6440 C   0  0  0  0  0  0  0  0  0  0  0  0
  -17.1690  -17.1700    0.4760 C   0  0  0  0  0  0  0  0  0  0  0  0
  -18.6900  -17.0030    0.0570 C   0  0  2  0  0  0  0  0  0  0  0  0
  -19.4310  -16.2980    0.9310 O   0  0  0  0  0  0  0  0  0  0  0  0
  -19.1520  -18.5110   -0.1960 C   0  0  1  0  0  0  0  0  0  0  0  0
  -20.2860  -18.5420   -1.2370 C   0  0  0  0  0  0  0  0  0  0  0  0
  -19.7350  -19.0000    1.1320 C   0  0  0  0  0  0  0  0  0  0  0  0
  -19.3550  -20.1010    1.9790 C   0  0  0  0  0  0  0  0  0  0  0  0
  -20.0480  -20.4180    3.1680 C   0  0  1  0  0  0  0  0  0  0  0  0
  -21.5610  -20.5440    2.9330 C   0  0  0  0  0  0  0  0  0  0  0  0
  -22.1600  -20.8900    4.1860 O   0  0  0  0  0  0  0  0  0  0  0  0
  -23.5940  -21.0900    4.1440 C   0  0  0  0  0  0  0  0  0  0  0  0
  -19.4230  -21.7550    3.6450 C   0  0  0  0  0  0  0  0  0  0  0  0
  -17.9130  -21.6390    3.0900 C   0  0  0  0  0  0  0  0  0  0  0  0
  -18.0270  -21.0290    1.7590 C   0  0  1  0  0  0  0  0  0  0  0  0
  -18.1400  -22.0730    0.5970 C   0  0  1  0  0  0  0  0  0  0  0  0
  -19.5800  -22.4330    0.1560 C   0  0  0  0  0  0  0  0  0  0  0  0
  -17.3060  -21.6120   -0.6570 C   0  0  1  0  0  0  0  0  0  0  0  0
  -17.1580  -22.7560   -1.4890 O   0  0  0  0  0  0  0  0  0  0  0  0
  -17.8770  -20.4190   -1.4310 C   0  0  2  0  0  0  0  0  0  0  0  0
  -17.0390  -20.2530   -2.6160 O   0  0  0  0  0  0  0  0  0  0  0  0
  -17.6570  -20.3930   -3.8760 C   0  0  1  0  0  0  0  0  0  0  0  0
  -18.4230  -19.1430   -4.1120 O   0  0  0  0  0  0  0  0  0  0  0  0
  -17.6500  -17.9450   -4.1180 C   0  0  1  0  0  0  0  0  0  0  0  0
  -16.4760  -18.0380   -5.1140 C   0  0  1  0  0  0  0  0  0  0  0  0
  -15.6970  -16.8570   -4.8670 O   0  0  0  0  0  0  0  0  0  0  0  0
  -15.7070  -19.3290   -4.8710 C   0  0  2  0  0  0  0  0  0  0  0  0
  -14.7240  -19.4590   -5.9870 O   0  0  0  0  0  0  0  0  0  0  0  0
  -13.6010  -20.3390   -5.8430 C   0  0  0  0  0  0  0  0  0  0  0  0
  -12.6220  -19.9390   -5.3110 O   0  0  0  0  0  0  0  0  0  0  0  0
  -13.5790  -21.8080   -6.4000 C   0  0  0  0  0  0  0  0  0  0  0  0
  -16.5990  -20.5360   -4.9440 C   0  0  1  0  0  0  0  0  0  0  0  0
  -15.9730  -21.8110   -4.7520 O   0  0  0  0  0  0  0  0  0  0  0  0
  -18.6420  -16.8230   -4.4290 C   0  0  0  0  0  0  0  0  0  0  0  0
  -19.0250  -16.9120   -5.7950 O   0  0  0  0  0  0  0  0  0  0  0  0
  -19.8210  -15.7830   -6.2570 C   0  0  0  0  0  0  0  0  0  0  0  0
  -19.1020  -14.3810   -5.9730 C   0  0  0  0  0  0  0  0  0  0  0  0
  -21.2810  -15.8440   -5.6490 C   0  0  0  0  0  0  0  0  0  0  0  0
  -19.7690  -16.0600   -7.7530 C   0  0  0  0  0  0  0  0  0  0  0  0
  -20.7730  -16.6530   -8.3820 C   0  0  0  0  0  0  0  0  0  0  0  0
  -15.2360  -19.5580   -1.1440 H   0  0  0  0  0  0  0  0  0  0  0  0
  -13.5560  -19.2290    0.6440 H   0  0  0  0  0  0  0  0  0  0  0  0
  -14.6210  -18.0990    1.4620 H   0  0  0  0  0  0  0  0  0  0  0  0
  -15.0710  -19.7930    1.3050 H   0  0  0  0  0  0  0  0  0  0  0  0
  -14.5420  -16.6770   -0.6160 H   0  0  0  0  0  0  0  0  0  0  0  0
  -15.2580  -17.2650   -2.1190 H   0  0  0  0  0  0  0  0  0  0  0  0
  -10.5800  -17.0950   -3.0730 H   0  0  0  0  0  0  0  0  0  0  0  0
  -10.8390  -18.2310   -1.7420 H   0  0  0  0  0  0  0  0  0  0  0  0
  -11.4340  -18.6170   -3.3600 H   0  0  0  0  0  0  0  0  0  0  0  0
  -16.6000  -16.2730    0.2320 H   0  0  0  0  0  0  0  0  0  0  0  0
  -17.0600  -17.3690    1.5430 H   0  0  0  0  0  0  0  0  0  0  0  0
  -18.7190  -16.4700   -0.8940 H   0  0  0  0  0  0  0  0  0  0  0  0
  -19.3900  -16.7210    1.7780 H   0  0  0  0  0  0  0  0  0  0  0  0
  -21.0930  -17.8760   -0.9420 H   0  0  0  0  0  0  0  0  0  0  0  0
  -19.9480  -18.2520   -2.2250 H   0  0  0  0  0  0  0  0  0  0  0  0
  -20.7300  -19.5320   -1.3150 H   0  0  0  0  0  0  0  0  0  0  0  0
  -20.6160  -18.4540    1.4280 H   0  0  0  0  0  0  0  0  0  0  0  0
  -19.8360  -19.6360    3.8980 H   0  0  0  0  0  0  0  0  0  0  0  0
  -21.7690  -21.3170    2.1960 H   0  0  0  0  0  0  0  0  0  0  0  0
  -22.0080  -19.6150    2.5820 H   0  0  0  0  0  0  0  0  0  0  0  0
  -23.9700  -21.2580    5.1530 H   0  0  0  0  0  0  0  0  0  0  0  0
  -24.0980  -20.2170    3.7290 H   0  0  0  0  0  0  0  0  0  0  0  0
  -23.8430  -21.9620    3.5410 H   0  0  0  0  0  0  0  0  0  0  0  0
  -19.9230  -22.6100    3.1910 H   0  0  0  0  0  0  0  0  0  0  0  0
  -19.4550  -21.9070    4.7160 H   0  0  0  0  0  0  0  0  0  0  0  0
  -17.4040  -22.5950    3.0810 H   0  0  0  0  0  0  0  0  0  0  0  0
  -17.3430  -20.9810    3.7480 H   0  0  0  0  0  0  0  0  0  0  0  0
  -17.1570  -20.3940    1.6170 H   0  0  0  0  0  0  0  0  0  0  0  0
  -17.6760  -22.9990    0.9400 H   0  0  0  0  0  0  0  0  0  0  0  0
  -19.5890  -23.1860   -0.6310 H   0  0  0  0  0  0  0  0  0  0  0  0
  -20.1470  -22.8500    0.9840 H   0  0  0  0  0  0  0  0  0  0  0  0
  -20.1410  -21.5740   -0.2060 H   0  0  0  0  0  0  0  0  0  0  0  0
  -16.2980  -21.3770   -0.3190 H   0  0  0  0  0  0  0  0  0  0  0  0
  -16.2610  -22.7900   -1.8110 H   0  0  0  0  0  0  0  0  0  0  0  0
  -18.8800  -20.6670   -1.7700 H   0  0  0  0  0  0  0  0  0  0  0  0
  -18.3410  -21.2350   -3.8890 H   0  0  0  0  0  0  0  0  0  0  0  0
  -17.2680  -17.7910   -3.1090 H   0  0  0  0  0  0  0  0  0  0  0  0
  -16.8370  -18.0230   -6.1430 H   0  0  0  0  0  0  0  0  0  0  0  0
  -16.2290  -16.0980   -5.0640 H   0  0  0  0  0  0  0  0  0  0  0  0
  -15.1790  -19.2860   -3.9170 H   0  0  0  0  0  0  0  0  0  0  0  0
  -12.7260  -21.9460   -7.0650 H   0  0  0  0  0  0  0  0  0  0  0  0
  -13.4980  -22.5240   -5.5810 H   0  0  0  0  0  0  0  0  0  0  0  0
  -14.4900  -22.0180   -6.9610 H   0  0  0  0  0  0  0  0  0  0  0  0
  -17.1050  -20.5650   -5.9100 H   0  0  0  0  0  0  0  0  0  0  0  0
  -15.6220  -21.8540   -3.8730 H   0  0  0  0  0  0  0  0  0  0  0  0
  -18.1310  -15.8880   -4.2140 H   0  0  0  0  0  0  0  0  0  0  0  0
  -19.5140  -16.8610   -3.7810 H   0  0  0  0  0  0  0  0  0  0  0  0
  -19.5780  -13.5880   -6.5490 H   0  0  0  0  0  0  0  0  0  0  0  0
  -19.1710  -14.0860   -4.9260 H   0  0  0  0  0  0  0  0  0  0  0  0
  -18.0490  -14.4050   -6.2560 H   0  0  0  0  0  0  0  0  0  0  0  0
  -21.9380  -15.1260   -6.1400 H   0  0  0  0  0  0  0  0  0  0  0  0
  -21.7190  -16.8370   -5.7230 H   0  0  0  0  0  0  0  0  0  0  0  0
  -21.2780  -15.5880   -4.5960 H   0  0  0  0  0  0  0  0  0  0  0  0
  -18.8300  -15.8760   -8.2570 H   0  0  0  0  0  0  0  0  0  0  0  0
  -20.5450  -16.9710   -9.3860 H   0  0  0  0  0  0  0  0  0  0  0  0
  -21.7470  -16.7240   -7.9630 H   0  0  0  0  0  0  0  0  0  0  0  0
  1  2  2  0  0  0  0
  1 13  1  0  0  0  0
  1 28  1  0  0  0  0
  2  3  1  0  0  0  0
  2 10  1  0  0  0  0
  3  4  1  0  0  0  0
  3  5  1  0  0  0  0
  3 49  1  6  0  0  0
  4 50  1  0  0  0  0
  4 51  1  0  0  0  0
  4 52  1  0  0  0  0
  5  6  1  0  0  0  0
  5 53  1  0  0  0  0
  5 54  1  0  0  0  0
  6  7  1  0  0  0  0
  7  8  2  0  0  0  0
  7  9  1  0  0  0  0
  9 55  1  0  0  0  0
  9 56  1  0  0  0  0
  9 57  1  0  0  0  0
 10 11  1  0  0  0  0
 10 58  1  0  0  0  0
 10 59  1  0  0  0  0
 11 12  1  0  0  0  0
 11 13  1  0  0  0  0
 11 60  1  6  0  0  0
 12 61  1  0  0  0  0
 13 14  1  6  0  0  0
 13 15  1  0  0  0  0
 14 62  1  0  0  0  0
 14 63  1  0  0  0  0
 14 64  1  0  0  0  0
 15 16  2  0  0  0  0
 15 65  1  0  0  0  0
 16 17  1  0  0  0  0
 16 23  1  0  0  0  0
 17 18  1  0  0  0  0
 17 21  1  0  0  0  0
 17 66  1  1  0  0  0
 18 19  1  0  0  0  0
 18 67  1  0  0  0  0
 18 68  1  0  0  0  0
 19 20  1  0  0  0  0
 20 69  1  0  0  0  0
 20 70  1  0  0  0  0
 20 71  1  0  0  0  0
 21 22  1  0  0  0  0
 21 72  1  0  0  0  0
 21 73  1  0  0  0  0
 22 23  1  0  0  0  0
 22 74  1  0  0  0  0
 22 75  1  0  0  0  0
 23 24  1  0  0  0  0
 23 76  1  6  0  0  0
 24 25  1  0  0  0  0
 24 26  1  0  0  0  0
 24 77  1  1  0  0  0
 25 78  1  0  0  0  0
 25 79  1  0  0  0  0
 25 80  1  0  0  0  0
 26 27  1  0  0  0  0
 26 28  1  0  0  0  0
 26 81  1  1  0  0  0
 27 82  1  0  0  0  0
 28 29  1  0  0  0  0
 28 83  1  6  0  0  0
 29 30  1  0  0  0  0
 30 31  1  0  0  0  0
 30 40  1  0  0  0  0
 30 84  1  6  0  0  0
 31 32  1  0  0  0  0
 32 33  1  0  0  0  0
 32 42  1  0  0  0  0
 32 85  1  1  0  0  0
 33 34  1  0  0  0  0
 33 35  1  0  0  0  0
 33 86  1  6  0  0  0
 34 87  1  0  0  0  0
 35 36  1  0  0  0  0
 35 40  1  0  0  0  0
 35 88  1  1  0  0  0
 36 37  1  0  0  0  0
 37 38  2  0  0  0  0
 37 39  1  0  0  0  0
 39 89  1  0  0  0  0
 39 90  1  0  0  0  0
 39 91  1  0  0  0  0
 40 41  1  0  0  0  0
 40 92  1  6  0  0  0
 41 93  1  0  0  0  0
 42 43  1  0  0  0  0
 42 94  1  0  0  0  0
 42 95  1  0  0  0  0
 43 44  1  0  0  0  0
 44 45  1  0  0  0  0
 44 46  1  0  0  0  0
 44 47  1  0  0  0  0
 45 96  1  0  0  0  0
 45 97  1  0  0  0  0
 45 98  1  0  0  0  0
 46 99  1  0  0  0  0
 46100  1  0  0  0  0
 46101  1  0  0  0  0
 47 48  2  0  0  0  0
 47102  1  0  0  0  0
 48103  1  0  0  0  0
 48104  1  0  0  0  0
M  END
>  <COMPND>
    title: molecule 1

$$$$
5ZCG_ligand0.pdb
 OpenBabel06042612053D

 38 38  0  0  1  0  0  0  0  0999 V2000
   27.7300   -0.2980  -25.2760 C   0  0  0  0  0  0  0  0  0  0  0  0
   29.0310    0.0410  -26.0140 C   0  0  0  0  0  0  0  0  0  0  0  0
   29.2030    1.0780  -26.8360 C   0  0  0  0  0  0  0  0  0  0  0  0
   28.0840    2.1010  -27.1480 C   0  0  0  0  0  0  0  0  0  0  0  0
   28.0410    2.8290  -28.3170 C   0  0  0  0  0  0  0  0  0  0  0  0
   30.5780    1.2540  -27.4790 C   0  0  0  0  0  0  0  0  0  0  0  0
   26.8910    3.8550  -28.5790 C   0  0  1  0  0  0  0  0  0  0  0  0
   26.0630    3.0120  -27.8090 O   0  0  0  0  0  0  0  0  0  0  0  0
   27.8290    4.8830  -27.8900 C   0  0  0  0  0  0  0  0  0  0  0  0
   28.6400    5.7960  -28.8120 C   0  0  0  0  0  0  0  0  0  0  0  0
   28.7720    5.4150  -30.2910 C   0  0  0  0  0  0  0  0  0  0  0  0
   29.2940    6.1650  -31.0560 O   0  0  0  0  0  0  0  0  0  0  0  0
   28.2250    4.0780  -30.7990 C   0  0  0  0  0  0  0  0  0  0  0  0
   26.9150    0.5920  -24.9230 O   0  5  0  0  0  0  0  0  0  0  0  0
   26.9570    3.5870  -30.1010 C   0  0  0  0  0  0  0  0  0  0  0  0
   27.4790   -1.5000  -24.9970 O   0  0  0  0  0  0  0  0  0  0  0  0
   27.4300    5.4380  -26.5180 C   0  0  0  0  0  0  0  0  0  0  0  0
   25.7880    4.3630  -30.7110 C   0  0  0  0  0  0  0  0  0  0  0  0
   26.7520    2.0990  -30.4230 C   0  0  0  0  0  0  0  0  0  0  0  0
   29.8640   -0.6260  -25.8470 H   0  0  0  0  0  0  0  0  0  0  0  0
   27.4120    2.2580  -26.3250 H   0  0  0  0  0  0  0  0  0  0  0  0
   28.8490    2.6350  -28.9960 H   0  0  0  0  0  0  0  0  0  0  0  0
   30.6780    2.1790  -28.0410 H   0  0  0  0  0  0  0  0  0  0  0  0
   31.3500    1.2600  -26.7090 H   0  0  0  0  0  0  0  0  0  0  0  0
   30.7820    0.4220  -28.1520 H   0  0  0  0  0  0  0  0  0  0  0  0
   25.2480    2.8790  -28.2720 H   0  0  0  0  0  0  0  0  0  0  0  0
   29.1250    6.6910  -28.4500 H   0  0  0  0  0  0  0  0  0  0  0  0
   29.0400    3.3580  -30.7850 H   0  0  0  0  0  0  0  0  0  0  0  0
   28.0110    4.1980  -31.8570 H   0  0  0  0  0  0  0  0  0  0  0  0
   28.0940    6.2460  -26.2120 H   0  0  0  0  0  0  0  0  0  0  0  0
   26.4090    5.8170  -26.5460 H   0  0  0  0  0  0  0  0  0  0  0  0
   27.4770    4.6560  -25.7610 H   0  0  0  0  0  0  0  0  0  0  0  0
   25.7350    4.2480  -31.7940 H   0  0  0  0  0  0  0  0  0  0  0  0
   24.8340    4.0220  -30.3060 H   0  0  0  0  0  0  0  0  0  0  0  0
   25.8560    5.4310  -30.5000 H   0  0  0  0  0  0  0  0  0  0  0  0
   26.4330    1.9910  -31.4580 H   0  0  0  0  0  0  0  0  0  0  0  0
   27.6570    1.5010  -30.3870 H   0  0  0  0  0  0  0  0  0  0  0  0
   25.9770    1.6060  -29.8370 H   0  0  0  0  0  0  0  0  0  0  0  0
  1  2  1  0  0  0  0
  1 14  1  0  0  0  0
  1 16  2  0  0  0  0
  2  3  2  0  0  0  0
  2 20  1  0  0  0  0
  3  4  1  0  0  0  0
  3  6  1  0  0  0  0
  4  5  2  0  0  0  0
  4 21  1  0  0  0  0
  5 22  1  0  0  0  0
  6 23  1  0  0  0  0
  6 24  1  0  0  0  0
  6 25  1  0  0  0  0
  7  5  1  1  0  0  0
  7  8  1  0  0  0  0
  7  9  1  0  0  0  0
  7 15  1  0  0  0  0
  8 26  1  0  0  0  0
  9 10  2  0  0  0  0
  9 17  1  0  0  0  0
 10 11  1  0  0  0  0
 10 27  1  0  0  0  0
 11 12  2  0  0  0  0
 11 13  1  0  0  0  0
 13 15  1  0  0  0  0
 13 28  1  0  0  0  0
 13 29  1  0  0  0  0
 15 18  1  0  0  0  0
 15 19  1  0  0  0  0
 17 30  1  0  0  0  0
 17 31  1  0  0  0  0
 17 32  1  0  0  0  0
 18 33  1  0  0  0  0
 18 34  1  0  0  0  0
 18 35  1  0  0  0  0
 19 36  1  0  0  0  0
 19 37  1  0  0  0  0
 19 38  1  0  0  0  0
M  CHG  1  14  -1
M  END
>  <COMPND>
    title: molecule 1

$$$$
5ZCH_ligand0.pdb
 OpenBabel06042612053D

 38 38  0  0  1  0  0  0  0  0999 V2000
    3.6600  -45.5390  -32.4170 C   0  0  0  0  0  0  0  0  0  0  0  0
    4.9940  -45.2740  -33.1100 C   0  0  0  0  0  0  0  0  0  0  0  0
    5.2400  -44.3230  -34.0290 C   0  0  0  0  0  0  0  0  0  0  0  0
    4.2240  -43.3980  -34.5110 C   0  0  0  0  0  0  0  0  0  0  0  0
    4.3770  -42.6720  -35.6130 C   0  0  0  0  0  0  0  0  0  0  0  0
    6.6060  -44.2090  -34.5940 C   0  0  0  0  0  0  0  0  0  0  0  0
    3.3240  -41.7260  -36.0860 C   0  0  1  0  0  0  0  0  0  0  0  0
    2.0510  -41.9410  -35.5370 O   0  0  0  0  0  0  0  0  0  0  0  0
    3.7330  -40.3170  -35.7250 C   0  0  0  0  0  0  0  0  0  0  0  0
    4.5460  -39.5980  -36.4930 C   0  0  0  0  0  0  0  0  0  0  0  0
    4.9640  -40.0640  -37.8190 C   0  0  0  0  0  0  0  0  0  0  0  0
    5.6990  -39.3830  -38.5210 O   0  0  0  0  0  0  0  0  0  0  0  0
    4.4610  -41.4140  -38.2950 C   0  0  0  0  0  0  0  0  0  0  0  0
    3.5000  -46.6920  -31.9010 O   0  5  0  0  0  0  0  0  0  0  0  0
    3.1530  -41.8870  -37.6260 C   0  0  0  0  0  0  0  0  0  0  0  0
    2.8020  -44.6540  -32.3780 O   0  0  0  0  0  0  0  0  0  0  0  0
    3.5320  -39.9100  -34.3140 C   0  0  0  0  0  0  0  0  0  0  0  0
    1.9860  -41.0550  -38.1670 C   0  0  0  0  0  0  0  0  0  0  0  0
    2.9240  -43.3410  -38.0190 C   0  0  0  0  0  0  0  0  0  0  0  0
    5.8010  -45.9310  -32.8400 H   0  0  0  0  0  0  0  0  0  0  0  0
    3.3110  -43.2320  -33.9790 H   0  0  0  0  0  0  0  0  0  0  0  0
    5.2790  -42.7520  -36.1970 H   0  0  0  0  0  0  0  0  0  0  0  0
    6.9250  -43.1730  -34.6680 H   0  0  0  0  0  0  0  0  0  0  0  0
    7.3340  -44.7160  -33.9620 H   0  0  0  0  0  0  0  0  0  0  0  0
    6.6470  -44.6650  -35.5830 H   0  0  0  0  0  0  0  0  0  0  0  0
    1.7720  -42.8160  -35.7630 H   0  0  0  0  0  0  0  0  0  0  0  0
    4.9370  -38.6500  -36.1520 H   0  0  0  0  0  0  0  0  0  0  0  0
    5.2660  -42.1340  -38.1620 H   0  0  0  0  0  0  0  0  0  0  0  0
    4.3100  -41.3540  -39.3650 H   0  0  0  0  0  0  0  0  0  0  0  0
    3.9360  -38.9170  -34.1140 H   0  0  0  0  0  0  0  0  0  0  0  0
    2.4720  -39.8770  -34.0620 H   0  0  0  0  0  0  0  0  0  0  0  0
    4.0230  -40.6050  -33.6330 H   0  0  0  0  0  0  0  0  0  0  0  0
    1.9460  -41.0920  -39.2560 H   0  0  0  0  0  0  0  0  0  0  0  0
    1.0210  -41.4180  -37.8120 H   0  0  0  0  0  0  0  0  0  0  0  0
    2.0510  -40.0030  -37.8880 H   0  0  0  0  0  0  0  0  0  0  0  0
    2.6760  -43.4310  -39.0740 H   0  0  0  0  0  0  0  0  0  0  0  0
    3.8220  -43.9320  -37.8750 H   0  0  0  0  0  0  0  0  0  0  0  0
    2.1140  -43.8050  -37.4560 H   0  0  0  0  0  0  0  0  0  0  0  0
  1  2  1  0  0  0  0
  1 14  1  0  0  0  0
  1 16  2  0  0  0  0
  2  3  2  0  0  0  0
  2 20  1  0  0  0  0
  3  4  1  0  0  0  0
  3  6  1  0  0  0  0
  4  5  2  0  0  0  0
  4 21  1  0  0  0  0
  5 22  1  0  0  0  0
  6 23  1  0  0  0  0
  6 24  1  0  0  0  0
  6 25  1  0  0  0  0
  7  5  1  1  0  0  0
  7  8  1  0  0  0  0
  7  9  1  0  0  0  0
  7 15  1  0  0  0  0
  8 26  1  0  0  0  0
  9 10  2  0  0  0  0
  9 17  1  0  0  0  0
 10 11  1  0  0  0  0
 10 27  1  0  0  0  0
 11 12  2  0  0  0  0
 11 13  1  0  0  0  0
 13 15  1  0  0  0  0
 13 28  1  0  0  0  0
 13 29  1  0  0  0  0
 15 18  1  0  0  0  0
 15 19  1  0  0  0  0
 17 30  1  0  0  0  0
 17 31  1  0  0  0  0
 17 32  1  0  0  0  0
 18 33  1  0  0  0  0
 18 34  1  0  0  0  0
 18 35  1  0  0  0  0
 19 36  1  0  0  0  0
 19 37  1  0  0  0  0
 19 38  1  0  0  0  0
M  CHG  1  14  -1
M  END
>  <COMPND>
    title: molecule 1

$$$$
5ZCL_ligand0.pdb
 OpenBabel06042612053D

 38 38  0  0  1  0  0  0  0  0999 V2000
   41.2860   29.2460   23.4510 C   0  0  0  0  0  0  0  0  0  0  0  0
   40.5390   30.1630   24.4210 C   0  0  0  0  0  0  0  0  0  0  0  0
   39.7530   31.2000   24.0700 C   0  0  0  0  0  0  0  0  0  0  0  0
   39.5160   31.5620   22.6720 C   0  0  0  0  0  0  0  0  0  0  0  0
   39.0740   32.7580   22.2840 C   0  0  0  0  0  0  0  0  0  0  0  0
   39.0980   32.0170   25.1400 C   0  0  0  0  0  0  0  0  0  0  0  0
   38.8480   33.0870   20.8340 C   0  0  1  0  0  0  0  0  0  0  0  0
   39.5480   32.2770   19.9130 O   0  0  0  0  0  0  0  0  0  0  0  0
   37.4010   32.9100   20.5210 C   0  0  0  0  0  0  0  0  0  0  0  0
   36.5540   33.9280   20.4210 C   0  0  0  0  0  0  0  0  0  0  0  0
   36.9110   35.2670   20.8730 C   0  0  0  0  0  0  0  0  0  0  0  0
   36.0610   36.1440   20.9910 O   0  0  0  0  0  0  0  0  0  0  0  0
   38.3620   35.5360   21.1830 C   0  0  0  0  0  0  0  0  0  0  0  0
   42.0600   28.3660   23.9740 O   0  5  0  0  0  0  0  0  0  0  0  0
   39.3430   34.5390   20.5520 C   0  0  0  0  0  0  0  0  0  0  0  0
   41.1200   29.3890   22.2280 O   0  0  0  0  0  0  0  0  0  0  0  0
   36.9070   31.5110   20.4470 C   0  0  0  0  0  0  0  0  0  0  0  0
   39.4210   34.8250   19.0760 C   0  0  0  0  0  0  0  0  0  0  0  0
   40.7150   34.7670   21.1720 C   0  0  0  0  0  0  0  0  0  0  0  0
   40.6790   29.9740   25.4680 H   0  0  0  0  0  0  0  0  0  0  0  0
   39.5960   30.8690   21.8750 H   0  0  0  0  0  0  0  0  0  0  0  0
   38.8810   33.5370   23.0040 H   0  0  0  0  0  0  0  0  0  0  0  0
   38.1680   32.4790   24.8140 H   0  0  0  0  0  0  0  0  0  0  0  0
   38.8520   31.3840   25.9910 H   0  0  0  0  0  0  0  0  0  0  0  0
   39.7740   32.8000   25.4820 H   0  0  0  0  0  0  0  0  0  0  0  0
   40.4730   32.2740   20.1410 H   0  0  0  0  0  0  0  0  0  0  0  0
   35.5100   33.7490   20.2120 H   0  0  0  0  0  0  0  0  0  0  0  0
   38.4660   35.5490   22.2670 H   0  0  0  0  0  0  0  0  0  0  0  0
   38.6050   36.5360   20.8460 H   0  0  0  0  0  0  0  0  0  0  0  0
   35.8180   31.4700   20.4600 H   0  0  0  0  0  0  0  0  0  0  0  0
   37.2290   31.0550   19.5110 H   0  0  0  0  0  0  0  0  0  0  0  0
   37.2740   30.8820   21.2540 H   0  0  0  0  0  0  0  0  0  0  0  0
   39.6410   35.8780   18.8950 H   0  0  0  0  0  0  0  0  0  0  0  0
   40.2190   34.2710   18.5800 H   0  0  0  0  0  0  0  0  0  0  0  0
   38.4930   34.6080   18.5470 H   0  0  0  0  0  0  0  0  0  0  0  0
   41.0670   35.7690   20.9450 H   0  0  0  0  0  0  0  0  0  0  0  0
   40.7190   34.7070   22.2580 H   0  0  0  0  0  0  0  0  0  0  0  0
   41.4740   34.0950   20.7860 H   0  0  0  0  0  0  0  0  0  0  0  0
  1  2  1  0  0  0  0
  1 14  1  0  0  0  0
  1 16  2  0  0  0  0
  2  3  2  0  0  0  0
  2 20  1  0  0  0  0
  3  4  1  0  0  0  0
  3  6  1  0  0  0  0
  4  5  2  0  0  0  0
  4 21  1  0  0  0  0
  5 22  1  0  0  0  0
  6 23  1  0  0  0  0
  6 24  1  0  0  0  0
  6 25  1  0  0  0  0
  7  5  1  1  0  0  0
  7  8  1  0  0  0  0
  7  9  1  0  0  0  0
  7 15  1  0  0  0  0
  8 26  1  0  0  0  0
  9 10  2  0  0  0  0
  9 17  1  0  0  0  0
 10 11  1  0  0  0  0
 10 27  1  0  0  0  0
 11 12  2  0  0  0  0
 11 13  1  0  0  0  0
 13 15  1  0  0  0  0
 13 28  1  0  0  0  0
 13 29  1  0  0  0  0
 15 18  1  0  0  0  0
 15 19  1  0  0  0  0
 17 30  1  0  0  0  0
 17 31  1  0  0  0  0
 17 32  1  0  0  0  0
 18 33  1  0  0  0  0
 18 34  1  0  0  0  0
 18 35  1  0  0  0  0
 19 36  1  0  0  0  0
 19 37  1  0  0  0  0
 19 38  1  0  0  0  0
M  CHG  1  14  -1
M  END
>  <COMPND>
    title: molecule 1

$$$$
6GHP_ligand0.pdb
 OpenBabel06042612053D

100103  0  0  1  0  0  0  0  0999 V2000
  -23.4350  -21.0990    4.1060 C   0  0  0  0  0  0  0  0  0  0  0  0
  -21.5000  -20.5890    2.9020 C   0  0  0  0  0  0  0  0  0  0  0  0
  -20.0060  -20.3100    3.0960 C   0  0  1  0  0  0  0  0  0  0  0  0
  -19.3150  -21.5730    3.6070 C   0  0  0  0  0  0  0  0  0  0  0  0
  -17.9220  -21.4860    3.0390 C   0  0  0  0  0  0  0  0  0  0  0  0
  -18.1030  -20.9240    1.6200 C   0  0  1  0  0  0  0  0  0  0  0  0
  -18.0720  -21.9020    0.4290 C   0  0  1  0  0  0  0  0  0  0  0  0
  -19.4660  -22.3530    0.0680 C   0  0  0  0  0  0  0  0  0  0  0  0
  -17.2610  -21.5260   -0.8200 C   0  0  2  0  0  0  0  0  0  0  0  0
  -17.8260  -20.3180   -1.6610 C   0  0  1  0  0  0  0  0  0  0  0  0
  -17.6400  -20.3390   -4.0600 C   0  0  1  0  0  0  0  0  0  0  0  0
  -17.7590  -17.9180   -4.3350 C   0  0  2  0  0  0  0  0  0  0  0  0
  -18.9500  -16.9570   -4.7010 C   0  0  0  0  0  0  0  0  0  0  0  0
  -20.2630  -16.5380   -6.6950 C   0  0  0  0  0  0  0  0  0  0  0  0
  -19.3270  -15.5280   -7.3660 C   0  0  0  0  0  0  0  0  0  0  0  0
  -21.2140  -15.7730   -5.7680 C   0  0  0  0  0  0  0  0  0  0  0  0
  -21.0940  -17.2250   -7.7400 C   0  0  0  0  0  0  0  0  0  0  0  0
  -22.1510  -17.9620   -7.4190 C   0  0  0  0  0  0  0  0  0  0  0  0
  -16.7310  -17.9550   -5.4930 C   0  0  2  0  0  0  0  0  0  0  0  0
  -15.7990  -19.1810   -5.3460 C   0  0  1  0  0  0  0  0  0  0  0  0
  -16.6720  -20.4400   -5.2640 C   0  0  1  0  0  0  0  0  0  0  0  0
  -17.7480  -19.0760   -0.8230 C   0  0  0  0  0  0  0  0  0  0  0  0
  -16.6930  -18.3120   -0.4970 C   0  0  0  0  0  0  0  0  0  0  0  0
  -17.1550  -16.9990    0.0720 C   0  0  0  0  0  0  0  0  0  0  0  0
  -18.6700  -16.9540   -0.2750 C   0  0  1  0  0  0  0  0  0  0  0  0
  -19.0550  -18.4660   -0.2700 C   0  0  1  0  0  0  0  0  0  0  0  0
  -20.2070  -18.5450   -1.2650 C   0  0  0  0  0  0  0  0  0  0  0  0
  -19.6010  -18.9570    1.0460 C   0  0  0  0  0  0  0  0  0  0  0  0
  -19.3230  -20.0540    1.7610 C   0  0  0  0  0  0  0  0  0  0  0  0
  -15.2240  -18.5990   -0.6000 C   0  0  2  0  0  0  0  0  0  0  0  0
  -14.5530  -18.5800    0.7650 C   0  0  0  0  0  0  0  0  0  0  0  0
  -14.5560  -17.5410   -1.5100 C   0  0  0  0  0  0  0  0  0  0  0  0
  -12.2440  -17.0580   -2.2030 C   0  0  0  0  0  0  0  0  0  0  0  0
  -10.9060  -17.5540   -2.7540 C   0  0  0  0  0  0  0  0  0  0  0  0
  -13.2630  -17.9860   -2.0340 N   0  0  0  0  0  0  0  0  0  0  0  0
  -22.0590  -20.8390    4.1800 O   0  0  0  0  0  0  0  0  0  0  0  0
  -17.1670  -22.5860   -1.7120 O   0  0  0  0  0  0  0  0  0  0  0  0
  -17.0080  -20.3120   -2.8090 O   0  0  0  0  0  0  0  0  0  0  0  0
  -18.3970  -19.1730   -4.1560 O   0  0  0  0  0  0  0  0  0  0  0  0
  -19.5390  -17.4520   -5.8830 O   0  0  0  0  0  0  0  0  0  0  0  0
  -15.9250  -16.8270   -5.3330 O   0  0  0  0  0  0  0  0  0  0  0  0
  -15.0620  -19.3040   -6.5260 O   0  0  0  0  0  0  0  0  0  0  0  0
  -15.8650  -21.5510   -5.0860 O   0  0  0  0  0  0  0  0  0  0  0  0
  -19.4130  -16.2250    0.6560 O   0  0  0  0  0  0  0  0  0  0  0  0
  -12.4250  -15.8720   -1.9280 O   0  0  0  0  0  0  0  0  0  0  0  0
  -23.8320  -21.2410    5.1110 H   0  0  0  0  0  0  0  0  0  0  0  0
  -23.9740  -20.2700    3.6460 H   0  0  0  0  0  0  0  0  0  0  0  0
  -23.6360  -22.0080    3.5380 H   0  0  0  0  0  0  0  0  0  0  0  0
  -21.6510  -21.4460    2.2470 H   0  0  0  0  0  0  0  0  0  0  0  0
  -21.9970  -19.7340    2.4430 H   0  0  0  0  0  0  0  0  0  0  0  0
  -19.8250  -19.4690    3.7660 H   0  0  0  0  0  0  0  0  0  0  0  0
  -19.8000  -22.4740    3.2290 H   0  0  0  0  0  0  0  0  0  0  0  0
  -19.3030  -21.6540    4.6860 H   0  0  0  0  0  0  0  0  0  0  0  0
  -17.4040  -22.4440    3.0580 H   0  0  0  0  0  0  0  0  0  0  0  0
  -17.3310  -20.7920    3.6390 H   0  0  0  0  0  0  0  0  0  0  0  0
  -17.2470  -20.2630    1.4940 H   0  0  0  0  0  0  0  0  0  0  0  0
  -17.5730  -22.7940    0.8080 H   0  0  0  0  0  0  0  0  0  0  0  0
  -19.4540  -23.1660   -0.6580 H   0  0  0  0  0  0  0  0  0  0  0  0
  -19.9970  -22.7320    0.9390 H   0  0  0  0  0  0  0  0  0  0  0  0
  -20.0730  -21.5550   -0.3540 H   0  0  0  0  0  0  0  0  0  0  0  0
  -16.2410  -21.3230   -0.4990 H   0  0  0  0  0  0  0  0  0  0  0  0
  -18.8470  -20.5500   -1.9540 H   0  0  0  0  0  0  0  0  0  0  0  0
  -18.3280  -21.1820   -4.0760 H   0  0  0  0  0  0  0  0  0  0  0  0
  -17.2930  -17.6250   -3.3940 H   0  0  0  0  0  0  0  0  0  0  0  0
  -18.5540  -15.9500   -4.8100 H   0  0  0  0  0  0  0  0  0  0  0  0
  -19.6850  -16.9200   -3.9000 H   0  0  0  0  0  0  0  0  0  0  0  0
  -18.5850  -16.0370   -7.9820 H   0  0  0  0  0  0  0  0  0  0  0  0
  -19.8840  -14.8520   -8.0180 H   0  0  0  0  0  0  0  0  0  0  0  0
  -18.7870  -14.9000   -6.6600 H   0  0  0  0  0  0  0  0  0  0  0  0
  -21.8030  -16.4260   -5.1220 H   0  0  0  0  0  0  0  0  0  0  0  0
  -20.6870  -15.0660   -5.1270 H   0  0  0  0  0  0  0  0  0  0  0  0
  -21.9100  -15.1630   -6.3450 H   0  0  0  0  0  0  0  0  0  0  0  0
  -20.7920  -17.0970   -8.7660 H   0  0  0  0  0  0  0  0  0  0  0  0
  -22.7370  -18.4420   -8.1850 H   0  0  0  0  0  0  0  0  0  0  0  0
  -22.4640  -18.1050   -6.3970 H   0  0  0  0  0  0  0  0  0  0  0  0
  -17.2110  -17.9540   -6.4730 H   0  0  0  0  0  0  0  0  0  0  0  0
  -15.1470  -19.0940   -4.4740 H   0  0  0  0  0  0  0  0  0  0  0  0
  -17.2660  -20.5650   -6.1710 H   0  0  0  0  0  0  0  0  0  0  0  0
  -16.6370  -16.1410   -0.3540 H   0  0  0  0  0  0  0  0  0  0  0  0
  -16.9890  -17.0010    1.1500 H   0  0  0  0  0  0  0  0  0  0  0  0
  -18.7840  -16.5040   -1.2640 H   0  0  0  0  0  0  0  0  0  0  0  0
  -21.0000  -17.8500   -0.9970 H   0  0  0  0  0  0  0  0  0  0  0  0
  -19.8990  -18.3290   -2.2830 H   0  0  0  0  0  0  0  0  0  0  0  0
  -20.6740  -19.5270   -1.2680 H   0  0  0  0  0  0  0  0  0  0  0  0
  -20.4430  -18.3860    1.4030 H   0  0  0  0  0  0  0  0  0  0  0  0
  -15.0940  -19.5770   -1.0540 H   0  0  0  0  0  0  0  0  0  0  0  0
  -13.5010  -18.8580    0.6890 H   0  0  0  0  0  0  0  0  0  0  0  0
  -14.6000  -17.5970    1.2350 H   0  0  0  0  0  0  0  0  0  0  0  0
  -15.0230  -19.2930    1.4420 H   0  0  0  0  0  0  0  0  0  0  0  0
  -14.4940  -16.5960   -0.9690 H   0  0  0  0  0  0  0  0  0  0  0  0
  -15.1860  -17.3530   -2.3800 H   0  0  0  0  0  0  0  0  0  0  0  0
  -10.2130  -16.7250   -2.8990 H   0  0  0  0  0  0  0  0  0  0  0  0
  -10.4540  -18.2620   -2.0600 H   0  0  0  0  0  0  0  0  0  0  0  0
  -11.0510  -18.0550   -3.7110 H   0  0  0  0  0  0  0  0  0  0  0  0
  -13.1370  -18.9650   -2.2840 H   0  0  0  0  0  0  0  0  0  0  0  0
  -16.4250  -22.4160   -2.2820 H   0  0  0  0  0  0  0  0  0  0  0  0
  -15.2370  -16.8830   -5.9810 H   0  0  0  0  0  0  0  0  0  0  0  0
  -14.5620  -20.1070   -6.4670 H   0  0  0  0  0  0  0  0  0  0  0  0
  -15.4340  -21.5200   -4.2370 H   0  0  0  0  0  0  0  0  0  0  0  0
  -19.6590  -16.8080    1.3580 H   0  0  0  0  0  0  0  0  0  0  0  0
  1 36  1  0  0  0  0
  1 46  1  0  0  0  0
  1 47  1  0  0  0  0
  1 48  1  0  0  0  0
  2  3  1  0  0  0  0
  2 36  1  0  0  0  0
  2 49  1  0  0  0  0
  2 50  1  0  0  0  0
  3  4  1  0  0  0  0
  3 29  1  0  0  0  0
  3 51  1  1  0  0  0
  4  5  1  0  0  0  0
  4 52  1  0  0  0  0
  4 53  1  0  0  0  0
  5  6  1  0  0  0  0
  5 54  1  0  0  0  0
  5 55  1  0  0  0  0
  6  7  1  0  0  0  0
  6 29  1  0  0  0  0
  6 56  1  6  0  0  0
  7  8  1  0  0  0  0
  7  9  1  0  0  0  0
  7 57  1  1  0  0  0
  8 58  1  0  0  0  0
  8 59  1  0  0  0  0
  8 60  1  0  0  0  0
  9 10  1  0  0  0  0
  9 37  1  0  0  0  0
  9 61  1  1  0  0  0
 10 22  1  0  0  0  0
 10 38  1  0  0  0  0
 10 62  1  6  0  0  0
 11 21  1  0  0  0  0
 11 38  1  0  0  0  0
 11 39  1  0  0  0  0
 11 63  1  6  0  0  0
 12 13  1  0  0  0  0
 12 19  1  0  0  0  0
 12 39  1  0  0  0  0
 12 64  1  1  0  0  0
 13 40  1  0  0  0  0
 13 65  1  0  0  0  0
 13 66  1  0  0  0  0
 14 15  1  0  0  0  0
 14 16  1  0  0  0  0
 14 17  1  0  0  0  0
 14 40  1  0  0  0  0
 15 67  1  0  0  0  0
 15 68  1  0  0  0  0
 15 69  1  0  0  0  0
 16 70  1  0  0  0  0
 16 71  1  0  0  0  0
 16 72  1  0  0  0  0
 17 18  2  0  0  0  0
 17 73  1  0  0  0  0
 18 74  1  0  0  0  0
 18 75  1  0  0  0  0
 19 20  1  0  0  0  0
 19 41  1  0  0  0  0
 19 76  1  6  0  0  0
 20 21  1  0  0  0  0
 20 42  1  0  0  0  0
 20 77  1  1  0  0  0
 21 43  1  0  0  0  0
 21 78  1  6  0  0  0
 22 23  2  0  0  0  0
 22 26  1  0  0  0  0
 23 24  1  0  0  0  0
 23 30  1  0  0  0  0
 24 25  1  0  0  0  0
 24 79  1  0  0  0  0
 24 80  1  0  0  0  0
 25 26  1  0  0  0  0
 25 44  1  0  0  0  0
 25 81  1  6  0  0  0
 26 27  1  6  0  0  0
 26 28  1  0  0  0  0
 27 82  1  0  0  0  0
 27 83  1  0  0  0  0
 27 84  1  0  0  0  0
 28 29  2  0  0  0  0
 28 85  1  0  0  0  0
 30 31  1  0  0  0  0
 30 32  1  0  0  0  0
 30 86  1  6  0  0  0
 31 87  1  0  0  0  0
 31 88  1  0  0  0  0
 31 89  1  0  0  0  0
 32 35  1  0  0  0  0
 32 90  1  0  0  0  0
 32 91  1  0  0  0  0
 33 34  1  0  0  0  0
 33 35  1  0  0  0  0
 33 45  2  0  0  0  0
 34 92  1  0  0  0  0
 34 93  1  0  0  0  0
 34 94  1  0  0  0  0
 35 95  1  0  0  0  0
 37 96  1  0  0  0  0
 41 97  1  0  0  0  0
 42 98  1  0  0  0  0
 43 99  1  0  0  0  0
 44100  1  0  0  0  0
M  END
>  <COMPND>
    title: molecule 1

$$$$
6HKF_ligand0.pdb
 OpenBabel06042612053D

 41 42  0  0  1  0  0  0  0  0999 V2000
   16.8610   22.7790   -0.6580 C   0  0  0  0  0  0  0  0  0  0  0  0
   17.3260   22.1020    2.4620 C   0  0  0  0  0  0  0  0  0  0  0  0
   19.5720   21.9430    3.3230 C   0  0  0  0  0  0  0  0  0  0  0  0
   18.3160   22.5390    3.3360 C   0  0  0  0  0  0  0  0  0  0  0  0
   19.8310   20.9100    2.4290 C   0  0  0  0  0  0  0  0  0  0  0  0
   18.8380   20.4790    1.5560 C   0  0  0  0  0  0  0  0  0  0  0  0
   16.4130   23.7730   -1.5200 C   0  0  0  0  0  0  0  0  0  0  0  0
   15.1180   23.7210   -2.0250 C   0  0  0  0  0  0  0  0  0  0  0  0
   14.2710   22.6790   -1.6670 C   0  0  0  0  0  0  0  0  0  0  0  0
   14.7240   21.6840   -0.8080 C   0  0  0  0  0  0  0  0  0  0  0  0
   16.0140   21.7350   -0.2880 C   0  0  0  0  0  0  0  0  0  0  0  0
   15.3020   20.1790    1.4950 C   0  0  0  0  0  0  0  0  0  0  0  0
   16.4710   20.6270    0.6230 C   0  0  0  0  0  0  0  0  0  0  0  0
   16.8470   19.4900   -0.3400 C   0  0  1  0  0  0  0  0  0  0  0  0
   18.3370   18.8980   -2.1860 C   0  0  0  0  0  0  0  0  0  0  0  0
   19.7890   18.6120   -1.8140 C   0  0  0  0  0  0  0  0  0  0  0  0
   17.5770   21.0740    1.5540 C   0  0  0  0  0  0  0  0  0  0  0  0
   17.8330   19.9800   -1.3290 N   0  3  0  0  0  0  0  0  0  0  0  0
   17.3040   18.3110    0.3370 O   0  0  0  0  0  0  0  0  0  0  0  0
   20.7290   20.1550   -1.6550 S   0  5  0  0  0  0  0  0  0  0  0  0
   17.8800   22.8310   -0.3030 H   0  0  0  0  0  0  0  0  0  0  0  0
   16.3630   22.5890    2.4880 H   0  0  0  0  0  0  0  0  0  0  0  0
   20.3480   22.2910    3.9850 H   0  0  0  0  0  0  0  0  0  0  0  0
   18.1100   23.3420    4.0250 H   0  0  0  0  0  0  0  0  0  0  0  0
   20.8080   20.4490    2.4040 H   0  0  0  0  0  0  0  0  0  0  0  0
   19.1360   19.6870    0.8940 H   0  0  0  0  0  0  0  0  0  0  0  0
   17.0720   24.5810   -1.8040 H   0  0  0  0  0  0  0  0  0  0  0  0
   14.7610   24.5010   -2.6810 H   0  0  0  0  0  0  0  0  0  0  0  0
   13.2680   22.6340   -2.0670 H   0  0  0  0  0  0  0  0  0  0  0  0
   14.0360   20.8790   -0.6100 H   0  0  0  0  0  0  0  0  0  0  0  0
   15.6460   19.4580    2.2350 H   0  0  0  0  0  0  0  0  0  0  0  0
   14.8480   20.9880    2.0560 H   0  0  0  0  0  0  0  0  0  0  0  0
   14.5130   19.6540    0.9580 H   0  0  0  0  0  0  0  0  0  0  0  0
   15.9680   19.1830   -0.9100 H   0  0  0  0  0  0  0  0  0  0  0  0
   17.7220   17.9970   -2.1750 H   0  0  0  0  0  0  0  0  0  0  0  0
   18.3130   19.2670   -3.2070 H   0  0  0  0  0  0  0  0  0  0  0  0
   20.2590   17.9750   -2.5630 H   0  0  0  0  0  0  0  0  0  0  0  0
   19.8320   18.0810   -0.8650 H   0  0  0  0  0  0  0  0  0  0  0  0
   18.6160   20.4070   -0.8550 H   0  0  0  0  0  0  0  0  0  0  0  0
   17.3870   20.6780   -1.9100 H   0  0  0  0  0  0  0  0  0  0  0  0
   17.4500   18.4970    1.2520 H   0  0  0  0  0  0  0  0  0  0  0  0
  1  7  2  0  0  0  0
  1 11  1  0  0  0  0
  1 21  1  0  0  0  0
  2  4  2  0  0  0  0
  2 17  1  0  0  0  0
  2 22  1  0  0  0  0
  3  4  1  0  0  0  0
  3  5  2  0  0  0  0
  3 23  1  0  0  0  0
  4 24  1  0  0  0  0
  5  6  1  0  0  0  0
  5 25  1  0  0  0  0
  6 17  2  0  0  0  0
  6 26  1  0  0  0  0
  7  8  1  0  0  0  0
  7 27  1  0  0  0  0
  8  9  2  0  0  0  0
  8 28  1  0  0  0  0
  9 10  1  0  0  0  0
  9 29  1  0  0  0  0
 10 11  2  0  0  0  0
 10 30  1  0  0  0  0
 11 13  1  0  0  0  0
 12 13  1  0  0  0  0
 12 31  1  0  0  0  0
 12 32  1  0  0  0  0
 12 33  1  0  0  0  0
 13 14  1  0  0  0  0
 13 17  1  0  0  0  0
 14 18  1  0  0  0  0
 14 19  1  0  0  0  0
 14 34  1  6  0  0  0
 15 16  1  0  0  0  0
 15 18  1  0  0  0  0
 15 35  1  0  0  0  0
 15 36  1  0  0  0  0
 16 20  1  0  0  0  0
 16 37  1  0  0  0  0
 16 38  1  0  0  0  0
 18 39  1  0  0  0  0
 18 40  1  0  0  0  0
 19 41  1  0  0  0  0
M  CHG  2  18   1  20  -1
M  END
>  <COMPND>
    title: molecule 1

$$$$
6HMT_ligand0.pdb
 OpenBabel06042612053D

 32 32  0  0  0  0  0  0  0  0999 V2000
   18.4040   21.9010    2.6020 C   0  0  0  0  0  0  0  0  0  0  0  0
   17.2140   22.5410    2.3080 C   0  0  0  0  0  0  0  0  0  0  0  0
   15.7050   20.2210   -0.0210 O   0  0  0  0  0  0  0  0  0  0  0  0
   15.4900   18.8480   -0.3590 C   0  0  0  0  0  0  0  0  0  0  0  0
   16.6130   18.3140   -1.2180 C   0  0  0  0  0  0  0  0  0  0  0  0
   19.6880   18.3860   -2.1320 C   0  0  0  0  0  0  0  0  0  0  0  0
   16.7940   17.1130   -1.3300 O   0  0  0  0  0  0  0  0  0  0  0  0
   14.2110   18.7880   -1.1780 C   0  0  0  0  0  0  0  0  0  0  0  0
   16.3340   21.9470    1.4280 C   0  0  0  0  0  0  0  0  0  0  0  0
   16.6390   20.7210    0.8570 C   0  0  0  0  0  0  0  0  0  0  0  0
   18.3810   18.7980   -2.8050 C   0  0  0  0  0  0  0  0  0  0  0  0
   15.3110   17.9970    0.8980 C   0  0  0  0  0  0  0  0  0  0  0  0
   17.8500   20.0820    1.1570 C   0  0  0  0  0  0  0  0  0  0  0  0
   18.7380   20.6760    2.0410 C   0  0  0  0  0  0  0  0  0  0  0  0
   17.3720   19.2070   -1.8460 N   0  0  0  0  0  0  0  0  0  0  0  0
   20.6320   19.8250   -1.5580 S   0  5  0  0  0  0  0  0  0  0  0  0
   19.5360   22.6800    3.7270 Cl  0  0  0  0  0  0  0  0  0  0  0  0
   17.0220   23.4930    2.7380 H   0  0  0  0  0  0  0  0  0  0  0  0
   20.3080   17.8560   -2.8540 H   0  0  0  0  0  0  0  0  0  0  0  0
   19.5180   17.7010   -1.3000 H   0  0  0  0  0  0  0  0  0  0  0  0
   13.9580   17.7690   -1.4750 H   0  0  0  0  0  0  0  0  0  0  0  0
   13.3790   19.1760   -0.5970 H   0  0  0  0  0  0  0  0  0  0  0  0
   14.2810   19.3930   -2.0830 H   0  0  0  0  0  0  0  0  0  0  0  0
   15.4070   22.4440    1.1810 H   0  0  0  0  0  0  0  0  0  0  0  0
   18.0080   17.9760   -3.4180 H   0  0  0  0  0  0  0  0  0  0  0  0
   18.5480   19.6180   -3.5030 H   0  0  0  0  0  0  0  0  0  0  0  0
   14.9770   16.9860    0.6590 H   0  0  0  0  0  0  0  0  0  0  0  0
   16.2310   17.8980    1.4740 H   0  0  0  0  0  0  0  0  0  0  0  0
   14.5610   18.4320    1.5590 H   0  0  0  0  0  0  0  0  0  0  0  0
   18.1280   19.1280    0.7410 H   0  0  0  0  0  0  0  0  0  0  0  0
   19.6710   20.1900    2.2880 H   0  0  0  0  0  0  0  0  0  0  0  0
   17.1940   20.1930   -1.7160 H   0  0  0  0  0  0  0  0  0  0  0  0
  1  2  2  0  0  0  0
  1 14  1  0  0  0  0
  1 17  1  0  0  0  0
  2  9  1  0  0  0  0
  2 18  1  0  0  0  0
  3  4  1  0  0  0  0
  3 10  1  0  0  0  0
  4  5  1  0  0  0  0
  4  8  1  0  0  0  0
  4 12  1  0  0  0  0
  5  7  2  0  0  0  0
  5 15  1  0  0  0  0
  6 11  1  0  0  0  0
  6 16  1  0  0  0  0
  6 19  1  0  0  0  0
  6 20  1  0  0  0  0
  8 21  1  0  0  0  0
  8 22  1  0  0  0  0
  8 23  1  0  0  0  0
  9 10  2  0  0  0  0
  9 24  1  0  0  0  0
 10 13  1  0  0  0  0
 11 15  1  0  0  0  0
 11 25  1  0  0  0  0
 11 26  1  0  0  0  0
 12 27  1  0  0  0  0
 12 28  1  0  0  0  0
 12 29  1  0  0  0  0
 13 14  2  0  0  0  0
 13 30  1  0  0  0  0
 14 31  1  0  0  0  0
 15 32  1  0  0  0  0
M  CHG  1  16  -1
M  END
>  <COMPND>
    title: molecule 1

$$$$
6HN2_ligand0.pdb
 OpenBabel06042612053D

 25 25  0  0  0  0  0  0  0  0999 V2000
   18.6410   20.7310    2.0870 C   0  0  0  0  0  0  0  0  0  0  0  0
   17.8570   20.0090    1.1930 C   0  0  0  0  0  0  0  0  0  0  0  0
   19.5220   18.5030   -2.4230 C   0  0  0  0  0  0  0  0  0  0  0  0
   18.1550   18.9620   -2.9240 C   0  0  0  0  0  0  0  0  0  0  0  0
   16.5120   18.9720   -1.1450 C   0  0  0  0  0  0  0  0  0  0  0  0
   15.7090   19.7640   -0.1330 C   0  0  0  0  0  0  0  0  0  0  0  0
   16.6040   20.5040    0.8420 C   0  0  0  0  0  0  0  0  0  0  0  0
   16.1610   21.7030    1.3870 C   0  0  0  0  0  0  0  0  0  0  0  0
   16.9450   22.4170    2.2900 C   0  0  0  0  0  0  0  0  0  0  0  0
   18.1940   21.9210    2.6300 C   0  0  0  0  0  0  0  0  0  0  0  0
   17.3800   19.6390   -1.9000 N   0  0  0  0  0  0  0  0  0  0  0  0
   16.3530   17.7670   -1.2520 O   0  0  0  0  0  0  0  0  0  0  0  0
   20.5040   19.9190   -1.8710 S   0  5  0  0  0  0  0  0  0  0  0  0
   19.2540   22.8070    3.7760 Cl  0  0  0  0  0  0  0  0  0  0  0  0
   20.2590   20.1400    2.5690 Cl  0  0  0  0  0  0  0  0  0  0  0  0
   18.2350   19.0690    0.8190 H   0  0  0  0  0  0  0  0  0  0  0  0
   20.0630   17.9780   -3.2100 H   0  0  0  0  0  0  0  0  0  0  0  0
   19.4090   17.8050   -1.5930 H   0  0  0  0  0  0  0  0  0  0  0  0
   17.6140   18.1190   -3.3590 H   0  0  0  0  0  0  0  0  0  0  0  0
   18.2930   19.6650   -3.7460 H   0  0  0  0  0  0  0  0  0  0  0  0
   15.0540   19.0950    0.4270 H   0  0  0  0  0  0  0  0  0  0  0  0
   15.0670   20.4670   -0.6660 H   0  0  0  0  0  0  0  0  0  0  0  0
   15.2320   22.1080    1.0420 H   0  0  0  0  0  0  0  0  0  0  0  0
   16.6330   23.3510    2.6480 H   0  0  0  0  0  0  0  0  0  0  0  0
   17.4970   20.6350   -1.7790 H   0  0  0  0  0  0  0  0  0  0  0  0
  1  2  2  0  0  0  0
  1 10  1  0  0  0  0
  1 15  1  0  0  0  0
  2  7  1  0  0  0  0
  2 16  1  0  0  0  0
  3  4  1  0  0  0  0
  3 13  1  0  0  0  0
  3 17  1  0  0  0  0
  3 18  1  0  0  0  0
  4 11  1  0  0  0  0
  4 19  1  0  0  0  0
  4 20  1  0  0  0  0
  5  6  1  0  0  0  0
  5 11  1  0  0  0  0
  5 12  2  0  0  0  0
  6  7  1  0  0  0  0
  6 21  1  0  0  0  0
  6 22  1  0  0  0  0
  7  8  2  0  0  0  0
  8  9  1  0  0  0  0
  8 23  1  0  0  0  0
  9 10  2  0  0  0  0
  9 24  1  0  0  0  0
 10 14  1  0  0  0  0
 11 25  1  0  0  0  0
M  CHG  1  13  -1
M  END
>  <COMPND>
    title: molecule 1

$$$$
6M4U_ligand0.pdb
 OpenBabel06042612053D

144147  0  0  1  0  0  0  0  0999 V2000
  -12.5950    3.5170   21.6500 C   0  0  0  0  0  0  0  0  0  0  0  0
  -11.4540    2.8380   21.8050 O   0  0  0  0  0  0  0  0  0  0  0  0
  -13.6740    3.0880   21.9600 O   0  0  0  0  0  0  0  0  0  0  0  0
  -12.3650    4.9030   21.0490 C   0  0  2  0  0  0  0  0  0  0  0  0
  -13.2410    5.0750   19.8090 C   0  0  0  0  0  0  0  0  0  0  0  0
  -12.6890    4.3030   18.5920 C   0  0  0  0  0  0  0  0  0  0  0  0
  -11.2500    4.7120   18.3290 C   0  0  0  0  0  0  0  0  0  0  0  0
  -10.3960    4.4970   19.5720 C   0  0  0  0  0  0  0  0  0  0  0  0
  -10.9520    5.2100   20.7320 N   0  0  0  0  0  0  0  0  0  0  0  0
  -10.2430    6.0900   21.4940 C   0  0  0  0  0  0  0  0  0  0  0  0
  -10.7040    6.5370   22.5480 O   0  0  0  0  0  0  0  0  0  0  0  0
   -8.9890    6.4340   21.1430 C   0  0  0  0  0  0  0  0  0  0  0  0
   -8.8480    7.1480   20.1620 O   0  0  0  0  0  0  0  0  0  0  0  0
   -7.7470    5.8490   21.8090 C   0  0  1  0  0  0  0  0  0  0  0  0
   -7.5860    4.5760   21.1620 O   0  0  0  0  0  0  0  0  0  0  0  0
   -6.6240    6.6110   21.5010 O   0  0  0  0  0  0  0  0  0  0  0  0
   -7.8510    5.6870   23.3330 C   0  0  1  0  0  0  0  0  0  0  0  0
   -6.6880    4.8430   23.8480 C   0  0  0  0  0  0  0  0  0  0  0  0
   -6.5940    3.5130   23.1110 C   0  0  0  0  0  0  0  0  0  0  0  0
   -6.5020    3.7390   21.6150 C   0  0  1  0  0  0  0  0  0  0  0  0
   -6.6460    2.4730   20.7880 C   0  0  0  0  0  0  0  0  0  0  0  0
   -5.5310    1.4320   20.9040 C   0  0  2  0  0  0  0  0  0  0  0  0
   -4.3060    2.0430   20.4870 O   0  0  0  0  0  0  0  0  0  0  0  0
   -5.8420    0.2090   20.0660 C   0  0  0  0  0  0  0  0  0  0  0  0
   -6.0850   -0.9750   20.6220 C   0  0  0  0  0  0  0  0  0  0  0  0
   -6.5410   -2.1930   19.9970 C   0  0  0  0  0  0  0  0  0  0  0  0
   -6.7680   -3.4340   20.5690 C   0  0  0  0  0  0  0  0  0  0  0  0
   -7.2480   -4.6340   19.9350 C   0  0  0  0  0  0  0  0  0  0  0  0
   -7.4580   -5.7870   20.5510 C   0  0  0  0  0  0  0  0  0  0  0  0
   -8.0760   -7.0280   19.9720 C   0  0  2  0  0  0  0  0  0  0  0  0
   -9.5190   -7.1740   20.4670 C   0  0  0  0  0  0  0  0  0  0  0  0
  -10.3740   -5.9100   20.3150 C   0  0  2  0  0  0  0  0  0  0  0  0
  -11.6790   -6.0500   21.0860 C   0  0  0  0  0  0  0  0  0  0  0  0
  -12.6390   -6.6190   20.6220 O   0  0  0  0  0  0  0  0  0  0  0  0
  -11.7280   -5.4570   22.4920 C   0  0  2  0  0  0  0  0  0  0  0  0
  -12.6710   -6.1190   23.3180 O   0  0  0  0  0  0  0  0  0  0  0  0
  -12.1000   -3.9720   22.4520 C   0  0  2  0  0  0  0  0  0  0  0  0
  -13.2720   -3.8160   21.6810 O   0  0  0  0  0  0  0  0  0  0  0  0
  -10.9920   -3.0820   21.9190 C   0  0  0  0  0  0  0  0  0  0  0  0
  -11.1390   -2.3910   20.7860 C   0  0  0  0  0  0  0  0  0  0  0  0
  -10.2100   -1.3510   20.2110 C   0  0  2  0  0  0  0  0  0  0  0  0
  -10.7670    0.0350   20.5180 C   0  0  0  0  0  0  0  0  0  0  0  0
  -11.5120    0.5900   19.7380 O   0  0  0  0  0  0  0  0  0  0  0  0
  -10.3730    0.6880   21.8170 C   0  0  0  0  0  0  0  0  0  0  0  0
  -11.4760    1.5190   22.4440 C   0  0  1  0  0  0  0  0  0  0  0  0
  -11.3580    1.7400   23.9590 C   0  0  1  0  0  0  0  0  0  0  0  0
  -11.5150    0.4500   24.7680 C   0  0  0  0  0  0  0  0  0  0  0  0
  -12.8250   -0.3170   24.6160 C   0  0  1  0  0  0  0  0  0  0  0  0
  -12.8710   -1.4920   25.5930 C   0  0  0  0  0  0  0  0  0  0  0  0
  -14.1850   -2.2510   25.5640 C   0  0  1  0  0  0  0  0  0  0  0  0
  -14.2110   -3.2370   26.5950 O   0  0  0  0  0  0  0  0  0  0  0  0
  -15.3580   -1.3130   25.7840 C   0  0  2  0  0  0  0  0  0  0  0  0
  -16.5870   -2.0380   25.7170 O   0  0  0  0  0  0  0  0  0  0  0  0
  -15.3560   -0.2120   24.7400 C   0  0  0  0  0  0  0  0  0  0  0  0
  -14.0480    0.5780   24.7990 C   0  0  0  0  0  0  0  0  0  0  0  0
   -7.9180    7.0350   24.0500 C   0  0  0  0  0  0  0  0  0  0  0  0
   -5.8480    0.4600   18.5790 C   0  0  0  0  0  0  0  0  0  0  0  0
   -7.2310   -8.2560   20.3200 C   0  0  0  0  0  0  0  0  0  0  0  0
  -10.6550   -5.5800   18.8530 C   0  0  0  0  0  0  0  0  0  0  0  0
   -9.7570   -3.0570   22.7760 C   0  0  0  0  0  0  0  0  0  0  0  0
  -10.0140   -1.5870   18.7140 C   0  0  0  0  0  0  0  0  0  0  0  0
  -10.0450    2.4210   24.3190 C   0  0  0  0  0  0  0  0  0  0  0  0
   -3.1850    1.1700   20.5650 C   0  0  0  0  0  0  0  0  0  0  0  0
  -12.2160   -7.3790   23.8020 C   0  0  0  0  0  0  0  0  0  0  0  0
  -13.3980   -4.3790   26.3520 C   0  0  0  0  0  0  0  0  0  0  0  0
  -12.7670    5.6140   21.7720 H   0  0  0  0  0  0  0  0  0  0  0  0
  -13.2550    6.1360   19.5710 H   0  0  0  0  0  0  0  0  0  0  0  0
  -14.2770    4.7950   20.0030 H   0  0  0  0  0  0  0  0  0  0  0  0
  -13.2960    4.4860   17.7120 H   0  0  0  0  0  0  0  0  0  0  0  0
  -12.7390    3.2290   18.7730 H   0  0  0  0  0  0  0  0  0  0  0  0
  -11.2130    5.7610   18.0320 H   0  0  0  0  0  0  0  0  0  0  0  0
  -10.8460    4.1390   17.4940 H   0  0  0  0  0  0  0  0  0  0  0  0
   -9.3780    4.7640   19.2960 H   0  0  0  0  0  0  0  0  0  0  0  0
  -10.3290    3.4290   19.7700 H   0  0  0  0  0  0  0  0  0  0  0  0
   -6.5580    6.6400   20.5510 H   0  0  0  0  0  0  0  0  0  0  0  0
   -8.7600    5.1400   23.5650 H   0  0  0  0  0  0  0  0  0  0  0  0
   -6.8060    4.6580   24.9160 H   0  0  0  0  0  0  0  0  0  0  0  0
   -5.7470    5.3840   23.7350 H   0  0  0  0  0  0  0  0  0  0  0  0
   -7.4590    2.8960   23.3440 H   0  0  0  0  0  0  0  0  0  0  0  0
   -5.7150    2.9710   23.4560 H   0  0  0  0  0  0  0  0  0  0  0  0
   -5.5550    4.2250   21.3730 H   0  0  0  0  0  0  0  0  0  0  0  0
   -6.7320    2.7890   19.7490 H   0  0  0  0  0  0  0  0  0  0  0  0
   -7.5960    2.0010   21.0280 H   0  0  0  0  0  0  0  0  0  0  0  0
   -5.4320    1.1380   21.9500 H   0  0  0  0  0  0  0  0  0  0  0  0
   -6.0310   -1.0160   21.6990 H   0  0  0  0  0  0  0  0  0  0  0  0
   -6.7750   -2.1490   18.9460 H   0  0  0  0  0  0  0  0  0  0  0  0
   -6.5600   -3.5060   21.6270 H   0  0  0  0  0  0  0  0  0  0  0  0
   -7.5410   -4.5640   18.9040 H   0  0  0  0  0  0  0  0  0  0  0  0
   -7.2080   -5.8470   21.5950 H   0  0  0  0  0  0  0  0  0  0  0  0
   -8.0940   -6.9240   18.8870 H   0  0  0  0  0  0  0  0  0  0  0  0
   -9.4990   -7.4700   21.5150 H   0  0  0  0  0  0  0  0  0  0  0  0
   -9.9950   -8.0060   19.9450 H   0  0  0  0  0  0  0  0  0  0  0  0
   -9.8500   -5.0670   20.7540 H   0  0  0  0  0  0  0  0  0  0  0  0
  -10.7480   -5.5670   22.9560 H   0  0  0  0  0  0  0  0  0  0  0  0
  -12.3300   -3.6350   23.4620 H   0  0  0  0  0  0  0  0  0  0  0  0
  -13.5270   -2.9020   21.6930 H   0  0  0  0  0  0  0  0  0  0  0  0
  -12.0460   -2.4740   20.2060 H   0  0  0  0  0  0  0  0  0  0  0  0
   -9.2320   -1.4190   20.6800 H   0  0  0  0  0  0  0  0  0  0  0  0
   -9.4850    1.2960   21.6650 H   0  0  0  0  0  0  0  0  0  0  0  0
  -10.0810   -0.1130   22.4920 H   0  0  0  0  0  0  0  0  0  0  0  0
  -12.4280    1.0270   22.2380 H   0  0  0  0  0  0  0  0  0  0  0  0
  -12.1510    2.4210   24.2610 H   0  0  0  0  0  0  0  0  0  0  0  0
  -11.3770    0.6980   25.8200 H   0  0  0  0  0  0  0  0  0  0  0  0
  -10.7010   -0.2260   24.5160 H   0  0  0  0  0  0  0  0  0  0  0  0
  -12.8630   -0.7300   23.6070 H   0  0  0  0  0  0  0  0  0  0  0  0
  -12.7030   -1.1270   26.6080 H   0  0  0  0  0  0  0  0  0  0  0  0
  -12.0380   -2.1590   25.3740 H   0  0  0  0  0  0  0  0  0  0  0  0
  -14.3060   -2.7360   24.5930 H   0  0  0  0  0  0  0  0  0  0  0  0
  -15.2910   -0.8690   26.7780 H   0  0  0  0  0  0  0  0  0  0  0  0
  -16.6360   -2.4720   24.8740 H   0  0  0  0  0  0  0  0  0  0  0  0
  -16.2000    0.4590   24.9020 H   0  0  0  0  0  0  0  0  0  0  0  0
  -15.4860   -0.6420   23.7490 H   0  0  0  0  0  0  0  0  0  0  0  0
  -14.0860    1.3420   24.0240 H   0  0  0  0  0  0  0  0  0  0  0  0
  -13.9860    1.1080   25.7500 H   0  0  0  0  0  0  0  0  0  0  0  0
   -8.0310    6.8840   25.1230 H   0  0  0  0  0  0  0  0  0  0  0  0
   -7.0110    7.6210   23.9010 H   0  0  0  0  0  0  0  0  0  0  0  0
   -8.7570    7.6480   23.7290 H   0  0  0  0  0  0  0  0  0  0  0  0
   -6.0270   -0.4390   18.0010 H   0  0  0  0  0  0  0  0  0  0  0  0
   -6.6260    1.1670   18.2970 H   0  0  0  0  0  0  0  0  0  0  0  0
   -4.8910    0.8600   18.2450 H   0  0  0  0  0  0  0  0  0  0  0  0
   -7.7490   -9.1800   20.0740 H   0  0  0  0  0  0  0  0  0  0  0  0
   -6.2730   -8.2410   19.8000 H   0  0  0  0  0  0  0  0  0  0  0  0
   -7.0270   -8.2770   21.3870 H   0  0  0  0  0  0  0  0  0  0  0  0
  -11.3480   -4.7430   18.7590 H   0  0  0  0  0  0  0  0  0  0  0  0
   -9.7450   -5.2960   18.3270 H   0  0  0  0  0  0  0  0  0  0  0  0
  -11.0880   -6.4300   18.3240 H   0  0  0  0  0  0  0  0  0  0  0  0
   -9.0780   -2.2400   22.5460 H   0  0  0  0  0  0  0  0  0  0  0  0
  -10.0310   -2.9500   23.8260 H   0  0  0  0  0  0  0  0  0  0  0  0
   -9.1980   -3.9850   22.6680 H   0  0  0  0  0  0  0  0  0  0  0  0
   -9.3340   -0.8490   18.2880 H   0  0  0  0  0  0  0  0  0  0  0  0
   -9.5760   -2.5690   18.5310 H   0  0  0  0  0  0  0  0  0  0  0  0
  -10.9540   -1.5380   18.1620 H   0  0  0  0  0  0  0  0  0  0  0  0
  -10.0440    2.7720   25.3510 H   0  0  0  0  0  0  0  0  0  0  0  0
   -9.2120    1.7260   24.2180 H   0  0  0  0  0  0  0  0  0  0  0  0
   -9.8320    3.2670   23.6740 H   0  0  0  0  0  0  0  0  0  0  0  0
   -2.2960    1.7510   20.3290 H   0  0  0  0  0  0  0  0  0  0  0  0
   -3.0630    0.7660   21.5710 H   0  0  0  0  0  0  0  0  0  0  0  0
   -3.2260    0.3430   19.8570 H   0  0  0  0  0  0  0  0  0  0  0  0
  -13.0230   -7.8630   24.3490 H   0  0  0  0  0  0  0  0  0  0  0  0
  -11.9100   -8.0530   23.0020 H   0  0  0  0  0  0  0  0  0  0  0  0
  -11.3800   -7.2510   24.4900 H   0  0  0  0  0  0  0  0  0  0  0  0
  -13.5630   -5.0980   27.1520 H   0  0  0  0  0  0  0  0  0  0  0  0
  -13.6650   -4.8600   25.4110 H   0  0  0  0  0  0  0  0  0  0  0  0
  -12.3350   -4.1390   26.3410 H   0  0  0  0  0  0  0  0  0  0  0  0
  1  2  1  0  0  0  0
  1  3  2  0  0  0  0
  1  4  1  0  0  0  0
  2 45  1  0  0  0  0
  4  5  1  0  0  0  0
  4  9  1  0  0  0  0
  4 66  1  1  0  0  0
  5  6  1  0  0  0  0
  5 67  1  0  0  0  0
  5 68  1  0  0  0  0
  6  7  1  0  0  0  0
  6 69  1  0  0  0  0
  6 70  1  0  0  0  0
  7  8  1  0  0  0  0
  7 71  1  0  0  0  0
  7 72  1  0  0  0  0
  8  9  1  0  0  0  0
  8 73  1  0  0  0  0
  8 74  1  0  0  0  0
  9 10  1  0  0  0  0
 10 11  2  0  0  0  0
 10 12  1  0  0  0  0
 12 13  2  0  0  0  0
 12 14  1  0  0  0  0
 14 15  1  0  0  0  0
 14 16  1  6  0  0  0
 14 17  1  0  0  0  0
 15 20  1  0  0  0  0
 16 75  1  0  0  0  0
 17 18  1  0  0  0  0
 17 56  1  0  0  0  0
 17 76  1  1  0  0  0
 18 19  1  0  0  0  0
 18 77  1  0  0  0  0
 18 78  1  0  0  0  0
 19 20  1  0  0  0  0
 19 79  1  0  0  0  0
 19 80  1  0  0  0  0
 20 21  1  0  0  0  0
 20 81  1  6  0  0  0
 21 22  1  0  0  0  0
 21 82  1  0  0  0  0
 21 83  1  0  0  0  0
 22 23  1  0  0  0  0
 22 24  1  0  0  0  0
 22 84  1  1  0  0  0
 23 63  1  0  0  0  0
 24 25  2  0  0  0  0
 24 57  1  0  0  0  0
 25 26  1  0  0  0  0
 25 85  1  0  0  0  0
 26 27  2  0  0  0  0
 26 86  1  0  0  0  0
 27 28  1  0  0  0  0
 27 87  1  0  0  0  0
 28 29  2  0  0  0  0
 28 88  1  0  0  0  0
 29 30  1  0  0  0  0
 29 89  1  0  0  0  0
 30 31  1  0  0  0  0
 30 58  1  0  0  0  0
 30 90  1  6  0  0  0
 31 32  1  0  0  0  0
 31 91  1  0  0  0  0
 31 92  1  0  0  0  0
 32 33  1  0  0  0  0
 32 59  1  0  0  0  0
 32 93  1  1  0  0  0
 33 34  2  0  0  0  0
 33 35  1  0  0  0  0
 35 36  1  0  0  0  0
 35 37  1  0  0  0  0
 35 94  1  1  0  0  0
 36 64  1  0  0  0  0
 37 38  1  0  0  0  0
 37 39  1  0  0  0  0
 37 95  1  1  0  0  0
 38 96  1  0  0  0  0
 39 40  2  0  0  0  0
 39 60  1  0  0  0  0
 40 41  1  0  0  0  0
 40 97  1  0  0  0  0
 41 42  1  0  0  0  0
 41 61  1  0  0  0  0
 41 98  1  1  0  0  0
 42 43  2  0  0  0  0
 42 44  1  0  0  0  0
 44 45  1  0  0  0  0
 44 99  1  0  0  0  0
 44100  1  0  0  0  0
 45 46  1  0  0  0  0
 45101  1  6  0  0  0
 46 47  1  0  0  0  0
 46 62  1  0  0  0  0
 46102  1  1  0  0  0
 47 48  1  0  0  0  0
 47103  1  0  0  0  0
 47104  1  0  0  0  0
 48 49  1  0  0  0  0
 48 55  1  0  0  0  0
 48105  1  6  0  0  0
 49 50  1  0  0  0  0
 49106  1  0  0  0  0
 49107  1  0  0  0  0
 50 51  1  0  0  0  0
 50 52  1  0  0  0  0
 50108  1  6  0  0  0
 51 65  1  0  0  0  0
 52 53  1  0  0  0  0
 52 54  1  0  0  0  0
 52109  1  1  0  0  0
 53110  1  0  0  0  0
 54 55  1  0  0  0  0
 54111  1  0  0  0  0
 54112  1  0  0  0  0
 55113  1  0  0  0  0
 55114  1  0  0  0  0
 56115  1  0  0  0  0
 56116  1  0  0  0  0
 56117  1  0  0  0  0
 57118  1  0  0  0  0
 57119  1  0  0  0  0
 57120  1  0  0  0  0
 58121  1  0  0  0  0
 58122  1  0  0  0  0
 58123  1  0  0  0  0
 59124  1  0  0  0  0
 59125  1  0  0  0  0
 59126  1  0  0  0  0
 60127  1  0  0  0  0
 60128  1  0  0  0  0
 60129  1  0  0  0  0
 61130  1  0  0  0  0
 61131  1  0  0  0  0
 61132  1  0  0  0  0
 62133  1  0  0  0  0
 62134  1  0  0  0  0
 62135  1  0  0  0  0
 63136  1  0  0  0  0
 63137  1  0  0  0  0
 63138  1  0  0  0  0
 64139  1  0  0  0  0
 64140  1  0  0  0  0
 64141  1  0  0  0  0
 65142  1  0  0  0  0
 65143  1  0  0  0  0
 65144  1  0  0  0  0
M  END
>  <COMPND>
    title: molecule 1

$$$$
6M4V_ligand0.pdb
 OpenBabel06042612053D

144147  0  0  1  0  0  0  0  0999 V2000
  -67.3660    1.1750   47.5820 C   0  0  0  0  0  0  0  0  0  0  0  0
  -68.2860    0.1130   47.9300 O   0  0  0  0  0  0  0  0  0  0  0  0
  -66.3130    0.9140   47.0330 O   0  0  0  0  0  0  0  0  0  0  0  0
  -67.7090    2.5920   47.9150 C   0  0  2  0  0  0  0  0  0  0  0  0
  -66.5010    3.2450   48.5930 C   0  0  0  0  0  0  0  0  0  0  0  0
  -66.2310    2.6400   49.9590 C   0  0  0  0  0  0  0  0  0  0  0  0
  -67.4730    2.8740   50.7930 C   0  0  0  0  0  0  0  0  0  0  0  0
  -68.6740    2.1880   50.1630 C   0  0  0  0  0  0  0  0  0  0  0  0
  -68.8860    2.6940   48.7970 N   0  0  0  0  0  0  0  0  0  0  0  0
  -70.0340    3.1770   48.3130 C   0  0  0  0  0  0  0  0  0  0  0  0
  -70.1520    3.5780   47.1750 O   0  0  0  0  0  0  0  0  0  0  0  0
  -71.2080    3.2300   49.1820 C   0  0  0  0  0  0  0  0  0  0  0  0
  -71.3690    4.2170   49.8690 O   0  0  0  0  0  0  0  0  0  0  0  0
  -72.2220    2.1030   49.2640 C   0  0  1  0  0  0  0  0  0  0  0  0
  -71.6350    1.0150   49.9790 O   0  0  0  0  0  0  0  0  0  0  0  0
  -73.3960    2.5620   49.9390 O   0  0  0  0  0  0  0  0  0  0  0  0
  -72.6820    1.6170   47.8940 C   0  0  1  0  0  0  0  0  0  0  0  0
  -73.5710    0.3820   48.0440 C   0  0  0  0  0  0  0  0  0  0  0  0
  -72.9590   -0.6970   48.9340 C   0  0  0  0  0  0  0  0  0  0  0  0
  -72.4700   -0.1170   50.2500 C   0  0  1  0  0  0  0  0  0  0  0  0
  -71.5840   -1.0970   51.0200 C   0  0  0  0  0  0  0  0  0  0  0  0
  -72.2460   -2.1420   51.9240 C   0  0  2  0  0  0  0  0  0  0  0  0
  -73.1000   -1.5300   52.8900 O   0  0  0  0  0  0  0  0  0  0  0  0
  -71.1070   -2.8580   52.6050 C   0  0  0  0  0  0  0  0  0  0  0  0
  -70.7110   -4.0760   52.1960 C   0  0  0  0  0  0  0  0  0  0  0  0
  -69.5840   -4.7860   52.7960 C   0  0  0  0  0  0  0  0  0  0  0  0
  -69.2150   -5.9570   52.2900 C   0  0  0  0  0  0  0  0  0  0  0  0
  -68.0620   -6.7140   52.7940 C   0  0  0  0  0  0  0  0  0  0  0  0
  -67.7030   -7.8080   52.1150 C   0  0  0  0  0  0  0  0  0  0  0  0
  -66.5190   -8.6870   52.4620 C   0  0  2  0  0  0  0  0  0  0  0  0
  -65.6620   -8.9460   51.2160 C   0  0  0  0  0  0  0  0  0  0  0  0
  -65.1250   -7.6550   50.5770 C   0  0  2  0  0  0  0  0  0  0  0  0
  -64.7100   -7.8670   49.1310 C   0  0  0  0  0  0  0  0  0  0  0  0
  -63.5620   -8.1780   48.8390 O   0  0  0  0  0  0  0  0  0  0  0  0
  -65.7230   -7.6880   48.0250 C   0  0  2  0  0  0  0  0  0  0  0  0
  -65.3210   -8.3950   46.8560 O   0  0  0  0  0  0  0  0  0  0  0  0
  -65.8150   -6.2230   47.6220 C   0  0  2  0  0  0  0  0  0  0  0  0
  -64.4600   -5.7400   47.6280 O   0  0  0  0  0  0  0  0  0  0  0  0
  -66.7600   -5.4390   48.5070 C   0  0  0  0  0  0  0  0  0  0  0  0
  -66.3170   -4.4130   49.2480 C   0  0  0  0  0  0  0  0  0  0  0  0
  -67.2060   -3.6040   50.1630 C   0  0  2  0  0  0  0  0  0  0  0  0
  -67.3980   -2.2690   49.5180 C   0  0  0  0  0  0  0  0  0  0  0  0
  -66.7900   -1.2850   49.9000 O   0  0  0  0  0  0  0  0  0  0  0  0
  -68.3750   -2.1930   48.3800 C   0  0  0  0  0  0  0  0  0  0  0  0
  -67.9340   -1.1470   47.3810 C   0  0  1  0  0  0  0  0  0  0  0  0
  -68.6240   -1.2770   46.0250 C   0  0  1  0  0  0  0  0  0  0  0  0
  -68.2840   -2.5710   45.2920 C   0  0  0  0  0  0  0  0  0  0  0  0
  -66.7920   -2.7730   45.0290 C   0  0  1  0  0  0  0  0  0  0  0  0
  -66.5860   -4.0900   44.2960 C   0  0  0  0  0  0  0  0  0  0  0  0
  -65.1000   -4.3570   44.0880 C   0  0  1  0  0  0  0  0  0  0  0  0
  -64.8470   -5.5470   43.3430 O   0  0  0  0  0  0  0  0  0  0  0  0
  -64.4770   -3.2150   43.3000 C   0  0  2  0  0  0  0  0  0  0  0  0
  -63.0730   -3.4410   43.1390 O   0  0  0  0  0  0  0  0  0  0  0  0
  -64.7050   -1.8730   43.9830 C   0  0  0  0  0  0  0  0  0  0  0  0
  -66.1930   -1.6410   44.1930 C   0  0  0  0  0  0  0  0  0  0  0  0
  -73.3930    2.7340   47.1250 C   0  0  0  0  0  0  0  0  0  0  0  0
  -70.4070   -2.1670   53.7350 C   0  0  0  0  0  0  0  0  0  0  0  0
  -67.0260   -9.9950   53.0510 C   0  0  0  0  0  0  0  0  0  0  0  0
  -63.9680   -7.0870   51.3960 C   0  0  0  0  0  0  0  0  0  0  0  0
  -68.2020   -5.8360   48.5420 C   0  0  0  0  0  0  0  0  0  0  0  0
  -66.5640   -3.4910   51.5490 C   0  0  0  0  0  0  0  0  0  0  0  0
  -70.1400   -1.1220   46.1440 C   0  0  0  0  0  0  0  0  0  0  0  0
  -73.8400   -2.4500   53.6940 C   0  0  0  0  0  0  0  0  0  0  0  0
  -65.5070   -9.8120   46.9110 C   0  0  0  0  0  0  0  0  0  0  0  0
  -65.4850   -6.7490   43.7940 C   0  0  0  0  0  0  0  0  0  0  0  0
  -67.8390    3.1190   46.9680 H   0  0  0  0  0  0  0  0  0  0  0  0
  -66.7080    4.3090   48.6970 H   0  0  0  0  0  0  0  0  0  0  0  0
  -65.6040    3.1820   47.9800 H   0  0  0  0  0  0  0  0  0  0  0  0
  -65.3710    3.1100   50.4270 H   0  0  0  0  0  0  0  0  0  0  0  0
  -66.0030    1.5770   49.9040 H   0  0  0  0  0  0  0  0  0  0  0  0
  -67.6660    3.9420   50.9050 H   0  0  0  0  0  0  0  0  0  0  0  0
  -67.3170    2.4860   51.8000 H   0  0  0  0  0  0  0  0  0  0  0  0
  -69.5100    2.3510   50.8400 H   0  0  0  0  0  0  0  0  0  0  0  0
  -68.5290    1.1090   50.1680 H   0  0  0  0  0  0  0  0  0  0  0  0
  -73.1290    2.8600   50.7980 H   0  0  0  0  0  0  0  0  0  0  0  0
  -71.8050    1.3180   47.3250 H   0  0  0  0  0  0  0  0  0  0  0  0
  -73.7850   -0.0380   47.0610 H   0  0  0  0  0  0  0  0  0  0  0  0
  -74.5370    0.6720   48.4610 H   0  0  0  0  0  0  0  0  0  0  0  0
  -72.1220   -1.1470   48.4000 H   0  0  0  0  0  0  0  0  0  0  0  0
  -73.6790   -1.4960   49.1120 H   0  0  0  0  0  0  0  0  0  0  0  0
  -73.3090    0.1900   50.8750 H   0  0  0  0  0  0  0  0  0  0  0  0
  -70.9410   -0.4850   51.6560 H   0  0  0  0  0  0  0  0  0  0  0  0
  -70.9000   -1.5880   50.3280 H   0  0  0  0  0  0  0  0  0  0  0  0
  -72.8250   -2.8310   51.3070 H   0  0  0  0  0  0  0  0  0  0  0  0
  -71.2340   -4.5380   51.3710 H   0  0  0  0  0  0  0  0  0  0  0  0
  -69.0250   -4.3690   53.6210 H   0  0  0  0  0  0  0  0  0  0  0  0
  -69.7730   -6.3600   51.4560 H   0  0  0  0  0  0  0  0  0  0  0  0
  -67.5090   -6.3850   53.6620 H   0  0  0  0  0  0  0  0  0  0  0  0
  -68.2720   -8.1160   51.2490 H   0  0  0  0  0  0  0  0  0  0  0  0
  -65.9200   -8.1850   53.2230 H   0  0  0  0  0  0  0  0  0  0  0  0
  -66.2620   -9.4960   50.4880 H   0  0  0  0  0  0  0  0  0  0  0  0
  -64.8310   -9.6060   51.4700 H   0  0  0  0  0  0  0  0  0  0  0  0
  -65.9150   -6.9080   50.5530 H   0  0  0  0  0  0  0  0  0  0  0  0
  -66.6970   -8.0620   48.3430 H   0  0  0  0  0  0  0  0  0  0  0  0
  -66.2040   -6.1400   46.6100 H   0  0  0  0  0  0  0  0  0  0  0  0
  -64.4580   -4.8390   47.3350 H   0  0  0  0  0  0  0  0  0  0  0  0
  -65.2790   -4.1150   49.2410 H   0  0  0  0  0  0  0  0  0  0  0  0
  -68.1820   -4.0590   50.3040 H   0  0  0  0  0  0  0  0  0  0  0  0
  -69.3760   -1.9880   48.7570 H   0  0  0  0  0  0  0  0  0  0  0  0
  -68.4050   -3.1640   47.9000 H   0  0  0  0  0  0  0  0  0  0  0  0
  -66.8580   -1.2620   47.2530 H   0  0  0  0  0  0  0  0  0  0  0  0
  -68.3010   -0.4440   45.4040 H   0  0  0  0  0  0  0  0  0  0  0  0
  -68.8070   -2.5690   44.3340 H   0  0  0  0  0  0  0  0  0  0  0  0
  -68.6850   -3.4300   45.8300 H   0  0  0  0  0  0  0  0  0  0  0  0
  -66.2700   -2.8410   45.9820 H   0  0  0  0  0  0  0  0  0  0  0  0
  -67.1020   -4.0780   43.3350 H   0  0  0  0  0  0  0  0  0  0  0  0
  -67.0420   -4.8840   44.8860 H   0  0  0  0  0  0  0  0  0  0  0  0
  -64.6090   -4.4510   45.0580 H   0  0  0  0  0  0  0  0  0  0  0  0
  -64.9160   -3.1830   42.3020 H   0  0  0  0  0  0  0  0  0  0  0  0
  -62.6580   -3.5380   43.9900 H   0  0  0  0  0  0  0  0  0  0  0  0
  -64.2810   -1.0670   43.3840 H   0  0  0  0  0  0  0  0  0  0  0  0
  -64.1910   -1.8630   44.9400 H   0  0  0  0  0  0  0  0  0  0  0  0
  -66.2960   -0.6810   44.6950 H   0  0  0  0  0  0  0  0  0  0  0  0
  -66.7050   -1.5520   43.2340 H   0  0  0  0  0  0  0  0  0  0  0  0
  -73.7130    2.3790   46.1450 H   0  0  0  0  0  0  0  0  0  0  0  0
  -74.2790    3.1000   47.6420 H   0  0  0  0  0  0  0  0  0  0  0  0
  -72.7480    3.5920   46.9510 H   0  0  0  0  0  0  0  0  0  0  0  0
  -70.4100   -2.7860   54.6320 H   0  0  0  0  0  0  0  0  0  0  0  0
  -69.3740   -1.9460   53.4640 H   0  0  0  0  0  0  0  0  0  0  0  0
  -70.8830   -1.2210   53.9930 H   0  0  0  0  0  0  0  0  0  0  0  0
  -66.1970  -10.6440   53.3360 H   0  0  0  0  0  0  0  0  0  0  0  0
  -67.6240   -9.8180   53.9450 H   0  0  0  0  0  0  0  0  0  0  0  0
  -67.6460  -10.5420   52.3390 H   0  0  0  0  0  0  0  0  0  0  0  0
  -63.5380   -6.2080   50.9140 H   0  0  0  0  0  0  0  0  0  0  0  0
  -64.2990   -6.7680   52.3840 H   0  0  0  0  0  0  0  0  0  0  0  0
  -63.1670   -7.8140   51.5340 H   0  0  0  0  0  0  0  0  0  0  0  0
  -68.9120   -5.0300   48.7010 H   0  0  0  0  0  0  0  0  0  0  0  0
  -68.4750   -6.2860   47.5870 H   0  0  0  0  0  0  0  0  0  0  0  0
  -68.3600   -6.5880   49.3140 H   0  0  0  0  0  0  0  0  0  0  0  0
  -67.2450   -2.9960   52.2380 H   0  0  0  0  0  0  0  0  0  0  0  0
  -66.3550   -4.4790   51.9600 H   0  0  0  0  0  0  0  0  0  0  0  0
  -65.6210   -2.9420   51.5350 H   0  0  0  0  0  0  0  0  0  0  0  0
  -70.6080   -1.0890   45.1600 H   0  0  0  0  0  0  0  0  0  0  0  0
  -70.5900   -1.9540   46.6860 H   0  0  0  0  0  0  0  0  0  0  0  0
  -70.4160   -0.2050   46.6560 H   0  0  0  0  0  0  0  0  0  0  0  0
  -74.5100   -1.8970   54.3520 H   0  0  0  0  0  0  0  0  0  0  0  0
  -74.4480   -3.1110   53.0750 H   0  0  0  0  0  0  0  0  0  0  0  0
  -73.1890   -3.0600   54.3210 H   0  0  0  0  0  0  0  0  0  0  0  0
  -65.2270  -10.2510   45.9540 H   0  0  0  0  0  0  0  0  0  0  0  0
  -64.8930  -10.2780   47.6820 H   0  0  0  0  0  0  0  0  0  0  0  0
  -66.5520  -10.0600   47.1010 H   0  0  0  0  0  0  0  0  0  0  0  0
  -65.1510   -7.5810   43.1740 H   0  0  0  0  0  0  0  0  0  0  0  0
  -65.1910   -6.9700   44.8160 H   0  0  0  0  0  0  0  0  0  0  0  0
  -66.5710   -6.7090   43.7200 H   0  0  0  0  0  0  0  0  0  0  0  0
  1  2  1  0  0  0  0
  1  3  2  0  0  0  0
  1  4  1  0  0  0  0
  2 45  1  0  0  0  0
  4  5  1  0  0  0  0
  4  9  1  0  0  0  0
  4 66  1  6  0  0  0
  5  6  1  0  0  0  0
  5 67  1  0  0  0  0
  5 68  1  0  0  0  0
  6  7  1  0  0  0  0
  6 69  1  0  0  0  0
  6 70  1  0  0  0  0
  7  8  1  0  0  0  0
  7 71  1  0  0  0  0
  7 72  1  0  0  0  0
  8  9  1  0  0  0  0
  8 73  1  0  0  0  0
  8 74  1  0  0  0  0
  9 10  1  0  0  0  0
 10 11  2  0  0  0  0
 10 12  1  0  0  0  0
 12 13  2  0  0  0  0
 12 14  1  0  0  0  0
 14 15  1  0  0  0  0
 14 16  1  1  0  0  0
 14 17  1  0  0  0  0
 15 20  1  0  0  0  0
 16 75  1  0  0  0  0
 17 18  1  0  0  0  0
 17 56  1  0  0  0  0
 17 76  1  6  0  0  0
 18 19  1  0  0  0  0
 18 77  1  0  0  0  0
 18 78  1  0  0  0  0
 19 20  1  0  0  0  0
 19 79  1  0  0  0  0
 19 80  1  0  0  0  0
 20 21  1  0  0  0  0
 20 81  1  1  0  0  0
 21 22  1  0  0  0  0
 21 82  1  0  0  0  0
 21 83  1  0  0  0  0
 22 23  1  0  0  0  0
 22 24  1  0  0  0  0
 22 84  1  6  0  0  0
 23 63  1  0  0  0  0
 24 25  2  0  0  0  0
 24 57  1  0  0  0  0
 25 26  1  0  0  0  0
 25 85  1  0  0  0  0
 26 27  2  0  0  0  0
 26 86  1  0  0  0  0
 27 28  1  0  0  0  0
 27 87  1  0  0  0  0
 28 29  2  0  0  0  0
 28 88  1  0  0  0  0
 29 30  1  0  0  0  0
 29 89  1  0  0  0  0
 30 31  1  0  0  0  0
 30 58  1  0  0  0  0
 30 90  1  1  0  0  0
 31 32  1  0  0  0  0
 31 91  1  0  0  0  0
 31 92  1  0  0  0  0
 32 33  1  0  0  0  0
 32 59  1  0  0  0  0
 32 93  1  1  0  0  0
 33 34  2  0  0  0  0
 33 35  1  0  0  0  0
 35 36  1  0  0  0  0
 35 37  1  0  0  0  0
 35 94  1  1  0  0  0
 36 64  1  0  0  0  0
 37 38  1  0  0  0  0
 37 39  1  0  0  0  0
 37 95  1  6  0  0  0
 38 96  1  0  0  0  0
 39 40  2  0  0  0  0
 39 60  1  0  0  0  0
 40 41  1  0  0  0  0
 40 97  1  0  0  0  0
 41 42  1  0  0  0  0
 41 61  1  0  0  0  0
 41 98  1  1  0  0  0
 42 43  2  0  0  0  0
 42 44  1  0  0  0  0
 44 45  1  0  0  0  0
 44 99  1  0  0  0  0
 44100  1  0  0  0  0
 45 46  1  0  0  0  0
 45101  1  6  0  0  0
 46 47  1  0  0  0  0
 46 62  1  0  0  0  0
 46102  1  6  0  0  0
 47 48  1  0  0  0  0
 47103  1  0  0  0  0
 47104  1  0  0  0  0
 48 49  1  0  0  0  0
 48 55  1  0  0  0  0
 48105  1  1  0  0  0
 49 50  1  0  0  0  0
 49106  1  0  0  0  0
 49107  1  0  0  0  0
 50 51  1  0  0  0  0
 50 52  1  0  0  0  0
 50108  1  1  0  0  0
 51 65  1  0  0  0  0
 52 53  1  0  0  0  0
 52 54  1  0  0  0  0
 52109  1  6  0  0  0
 53110  1  0  0  0  0
 54 55  1  0  0  0  0
 54111  1  0  0  0  0
 54112  1  0  0  0  0
 55113  1  0  0  0  0
 55114  1  0  0  0  0
 56115  1  0  0  0  0
 56116  1  0  0  0  0
 56117  1  0  0  0  0
 57118  1  0  0  0  0
 57119  1  0  0  0  0
 57120  1  0  0  0  0
 58121  1  0  0  0  0
 58122  1  0  0  0  0
 58123  1  0  0  0  0
 59124  1  0  0  0  0
 59125  1  0  0  0  0
 59126  1  0  0  0  0
 60127  1  0  0  0  0
 60128  1  0  0  0  0
 60129  1  0  0  0  0
 61130  1  0  0  0  0
 61131  1  0  0  0  0
 61132  1  0  0  0  0
 62133  1  0  0  0  0
 62134  1  0  0  0  0
 62135  1  0  0  0  0
 63136  1  0  0  0  0
 63137  1  0  0  0  0
 63138  1  0  0  0  0
 64139  1  0  0  0  0
 64140  1  0  0  0  0
 64141  1  0  0  0  0
 65142  1  0  0  0  0
 65143  1  0  0  0  0
 65144  1  0  0  0  0
M  END
>  <COMPND>
    title: molecule 1

$$$$
6N4N_ligand0.pdb
 OpenBabel06042612053D

 94 99  0  0  1  0  0  0  0  0999 V2000
  -13.3910   -6.8300   38.4590 C   0  0  0  0  0  0  0  0  0  0  0  0
  -17.8850   -2.0180   32.3780 F   0  0  0  0  0  0  0  0  0  0  0  0
  -18.8890   -2.6950   39.4890 N   0  0  0  0  0  0  0  0  0  0  0  0
  -20.5700   -2.4350   37.7940 O   0  0  0  0  0  0  0  0  0  0  0  0
   -9.2060   -4.6830   40.2130 S   0  0  0  0  0  0  0  0  0  0  0  0
  -12.9020   -5.5640   39.1490 C   0  0  1  0  0  0  0  0  0  0  0  0
  -13.4100   -4.3570   38.5300 N   0  0  0  0  0  0  0  0  0  0  0  0
  -18.8160   -0.9460   38.0370 O   0  0  0  0  0  0  0  0  0  0  0  0
  -14.1240   -6.3310   39.7030 C   0  0  2  0  0  0  0  0  0  0  0  0
  -10.6530   -4.6710   39.6630 N   0  5  0  0  0  0  0  0  0  0  0  0
  -16.3640   -3.9530   39.0960 O   0  0  0  0  0  0  0  0  0  0  0  0
  -11.4950   -5.7110   39.7410 C   0  0  0  0  0  0  0  0  0  0  0  0
  -15.3280    0.7620   34.5540 N   0  0  0  0  0  0  0  0  0  0  0  0
   -8.4560   -5.8510   39.7230 O   0  0  0  0  0  0  0  0  0  0  0  0
  -13.9010   -7.1300   40.9780 C   0  0  0  0  0  0  0  0  0  0  0  0
  -15.6130   -1.8290   38.9680 N   0  0  0  0  0  0  0  0  0  0  0  0
  -13.9920    1.7700   36.0790 O   0  0  0  0  0  0  0  0  0  0  0  0
  -20.2660   -1.8950   35.3970 C   0  0  0  0  0  0  0  0  0  0  0  0
   -9.3070   -4.7010   41.6720 O   0  0  0  0  0  0  0  0  0  0  0  0
  -22.3980   -2.7480   36.3460 C   0  0  0  0  0  0  0  0  0  0  0  0
  -13.4790   -3.0940   40.3830 O   0  0  0  0  0  0  0  0  0  0  0  0
  -21.6490   -0.4450   36.9040 C   0  0  0  0  0  0  0  0  0  0  0  0
  -15.2930    0.0180   36.8060 O   0  0  0  0  0  0  0  0  0  0  0  0
  -21.1790   -1.8750   36.6230 C   0  0  0  0  0  0  0  0  0  0  0  0
  -11.1430   -6.7740   40.2350 O   0  0  0  0  0  0  0  0  0  0  0  0
  -14.5350   -6.8960   42.1420 C   0  0  0  0  0  0  0  0  0  0  0  0
  -13.6700   -3.2370   39.1930 C   0  0  0  0  0  0  0  0  0  0  0  0
  -15.0100    1.6470   33.4100 C   0  0  0  0  0  0  0  0  0  0  0  0
  -15.5780   -5.8110   42.3920 C   0  0  0  0  0  0  0  0  0  0  0  0
  -16.5490    0.5200   30.0610 C   0  0  0  0  0  0  0  0  0  0  0  0
  -14.3170   -2.1670   38.3590 C   0  0  2  0  0  0  0  0  0  0  0  0
  -15.7670    1.3280   30.9090 C   0  0  0  0  0  0  0  0  0  0  0  0
  -17.2600   -0.6000   30.5430 C   0  0  0  0  0  0  0  0  0  0  0  0
  -15.0680   -4.6680   43.2750 C   0  0  0  0  0  0  0  0  0  0  0  0
  -16.1610   -3.6180   43.5680 C   0  0  0  0  0  0  0  0  0  0  0  0
  -19.3540   -1.9720   38.4540 C   0  0  0  0  0  0  0  0  0  0  0  0
  -17.2220   -0.9490   31.9040 C   0  0  0  0  0  0  0  0  0  0  0  0
  -16.4230   -2.6200   42.4240 C   0  0  0  0  0  0  0  0  0  0  0  0
   -8.4690   -3.2480   39.7720 C   0  0  0  0  0  0  0  0  0  0  0  0
  -15.7270    0.9830   32.2670 C   0  0  0  0  0  0  0  0  0  0  0  0
  -17.6760   -2.9980   41.6000 C   0  0  0  0  0  0  0  0  0  0  0  0
  -16.4650   -0.1740   32.7650 C   0  0  0  0  0  0  0  0  0  0  0  0
  -13.6090   -0.8280   38.2820 C   0  0  0  0  0  0  0  0  0  0  0  0
  -17.6690   -2.3500   40.2060 C   0  0  1  0  0  0  0  0  0  0  0  0
   -6.9540   -3.3150   39.9210 C   0  0  0  0  0  0  0  0  0  0  0  0
  -14.7460    0.1570   38.1210 C   0  0  2  0  0  0  0  0  0  0  0  0
  -16.2600   -0.3370   34.2450 C   0  0  0  0  0  0  0  0  0  0  0  0
   -7.5950   -3.4120   38.5360 C   0  0  0  0  0  0  0  0  0  0  0  0
  -16.4880   -2.7740   39.3680 C   0  0  0  0  0  0  0  0  0  0  0  0
  -15.7860   -0.3820   39.0750 C   0  0  0  0  0  0  0  0  0  0  0  0
  -14.8190    0.9210   35.7800 C   0  0  0  0  0  0  0  0  0  0  0  0
  -12.7860   -7.7290   38.5470 H   0  0  0  0  0  0  0  0  0  0  0  0
  -13.8810   -6.7230   37.4960 H   0  0  0  0  0  0  0  0  0  0  0  0
  -19.4040   -3.5330   39.7310 H   0  0  0  0  0  0  0  0  0  0  0  0
  -13.6160   -4.3940   37.5410 H   0  0  0  0  0  0  0  0  0  0  0  0
  -15.1390   -5.9930   39.5390 H   0  0  0  0  0  0  0  0  0  0  0  0
  -13.2020   -7.9470   40.9190 H   0  0  0  0  0  0  0  0  0  0  0  0
  -20.7950   -1.5540   34.5060 H   0  0  0  0  0  0  0  0  0  0  0  0
  -19.3970   -1.2490   35.5190 H   0  0  0  0  0  0  0  0  0  0  0  0
  -19.8990   -2.9010   35.1940 H   0  0  0  0  0  0  0  0  0  0  0  0
  -23.0110   -2.3500   35.5410 H   0  0  0  0  0  0  0  0  0  0  0  0
  -22.0670   -3.7330   36.0430 H   0  0  0  0  0  0  0  0  0  0  0  0
  -23.0300   -2.8530   37.2280 H   0  0  0  0  0  0  0  0  0  0  0  0
  -22.2860   -0.0810   36.0990 H   0  0  0  0  0  0  0  0  0  0  0  0
  -22.2320   -0.4050   37.8250 H   0  0  0  0  0  0  0  0  0  0  0  0
  -20.8220    0.2570   37.0060 H   0  0  0  0  0  0  0  0  0  0  0  0
  -14.3050   -7.5200   42.9930 H   0  0  0  0  0  0  0  0  0  0  0  0
  -14.3470    2.4930   33.4920 H   0  0  0  0  0  0  0  0  0  0  0  0
  -16.4540   -6.2770   42.8410 H   0  0  0  0  0  0  0  0  0  0  0  0
  -15.9140   -5.3930   41.4480 H   0  0  0  0  0  0  0  0  0  0  0  0
  -16.6300    0.7420   29.0170 H   0  0  0  0  0  0  0  0  0  0  0  0
  -14.5120   -2.5300   37.3470 H   0  0  0  0  0  0  0  0  0  0  0  0
  -15.2260    2.1830   30.5280 H   0  0  0  0  0  0  0  0  0  0  0  0
  -17.8430   -1.1970   29.8580 H   0  0  0  0  0  0  0  0  0  0  0  0
  -14.1960   -4.1960   42.8220 H   0  0  0  0  0  0  0  0  0  0  0  0
  -14.7210   -5.0900   44.2190 H   0  0  0  0  0  0  0  0  0  0  0  0
  -15.8150   -3.0390   44.4250 H   0  0  0  0  0  0  0  0  0  0  0  0
  -17.0850   -4.0940   43.8990 H   0  0  0  0  0  0  0  0  0  0  0  0
  -15.5230   -2.5310   41.8210 H   0  0  0  0  0  0  0  0  0  0  0  0
  -16.5690   -1.6330   42.8540 H   0  0  0  0  0  0  0  0  0  0  0  0
   -9.0280   -2.3480   39.9740 H   0  0  0  0  0  0  0  0  0  0  0  0
  -18.5710   -2.7020   42.1490 H   0  0  0  0  0  0  0  0  0  0  0  0
  -17.7470   -4.0800   41.4880 H   0  0  0  0  0  0  0  0  0  0  0  0
  -12.9360   -0.7630   37.4380 H   0  0  0  0  0  0  0  0  0  0  0  0
  -13.0400   -0.6230   39.1850 H   0  0  0  0  0  0  0  0  0  0  0  0
  -17.6840   -1.2790   40.3810 H   0  0  0  0  0  0  0  0  0  0  0  0
   -6.5320   -4.1990   40.3890 H   0  0  0  0  0  0  0  0  0  0  0  0
   -6.4240   -2.3920   40.1350 H   0  0  0  0  0  0  0  0  0  0  0  0
  -14.4730    1.1840   38.3600 H   0  0  0  0  0  0  0  0  0  0  0  0
  -16.6090   -1.0510   34.9770 H   0  0  0  0  0  0  0  0  0  0  0  0
   -7.5250   -2.5460   37.8850 H   0  0  0  0  0  0  0  0  0  0  0  0
   -7.5540   -4.3660   38.0160 H   0  0  0  0  0  0  0  0  0  0  0  0
  -15.5660   -0.0740   40.0980 H   0  0  0  0  0  0  0  0  0  0  0  0
  -16.7690   -0.0010   38.8180 H   0  0  0  0  0  0  0  0  0  0  0  0
  1  6  1  0  0  0  0
  1  9  1  0  0  0  0
  1 52  1  0  0  0  0
  1 53  1  0  0  0  0
  2 37  1  0  0  0  0
  3 36  1  0  0  0  0
  3 44  1  0  0  0  0
  3 54  1  0  0  0  0
  4 24  1  0  0  0  0
  4 36  1  0  0  0  0
  5 10  1  0  0  0  0
  5 14  2  0  0  0  0
  5 19  2  0  0  0  0
  5 39  1  0  0  0  0
  6  7  1  0  0  0  0
  6  9  1  0  0  0  0
  6 12  1  1  0  0  0
  7 27  1  0  0  0  0
  7 55  1  0  0  0  0
  8 36  2  0  0  0  0
  9 15  1  0  0  0  0
  9 56  1  6  0  0  0
 10 12  1  0  0  0  0
 11 49  2  0  0  0  0
 12 25  2  0  0  0  0
 13 28  1  0  0  0  0
 13 47  1  0  0  0  0
 13 51  1  0  0  0  0
 15 26  2  0  0  0  0
 15 57  1  0  0  0  0
 16 31  1  0  0  0  0
 16 49  1  0  0  0  0
 16 50  1  0  0  0  0
 17 51  2  0  0  0  0
 18 24  1  0  0  0  0
 18 58  1  0  0  0  0
 18 59  1  0  0  0  0
 18 60  1  0  0  0  0
 20 24  1  0  0  0  0
 20 61  1  0  0  0  0
 20 62  1  0  0  0  0
 20 63  1  0  0  0  0
 21 27  2  0  0  0  0
 22 24  1  0  0  0  0
 22 64  1  0  0  0  0
 22 65  1  0  0  0  0
 22 66  1  0  0  0  0
 23 46  1  0  0  0  0
 23 51  1  0  0  0  0
 26 29  1  0  0  0  0
 26 67  1  0  0  0  0
 27 31  1  0  0  0  0
 28 40  2  0  0  0  0
 28 68  1  0  0  0  0
 29 34  1  0  0  0  0
 29 69  1  0  0  0  0
 29 70  1  0  0  0  0
 30 32  2  0  0  0  0
 30 33  1  0  0  0  0
 30 71  1  0  0  0  0
 31 43  1  0  0  0  0
 31 72  1  6  0  0  0
 32 40  1  0  0  0  0
 32 73  1  0  0  0  0
 33 37  2  0  0  0  0
 33 74  1  0  0  0  0
 34 35  1  0  0  0  0
 34 75  1  0  0  0  0
 34 76  1  0  0  0  0
 35 38  1  0  0  0  0
 35 77  1  0  0  0  0
 35 78  1  0  0  0  0
 37 42  1  0  0  0  0
 38 41  1  0  0  0  0
 38 79  1  0  0  0  0
 38 80  1  0  0  0  0
 39 45  1  0  0  0  0
 39 48  1  0  0  0  0
 39 81  1  0  0  0  0
 40 42  1  0  0  0  0
 41 44  1  0  0  0  0
 41 82  1  0  0  0  0
 41 83  1  0  0  0  0
 42 47  2  0  0  0  0
 43 46  1  0  0  0  0
 43 84  1  0  0  0  0
 43 85  1  0  0  0  0
 44 49  1  0  0  0  0
 44 86  1  1  0  0  0
 45 48  1  0  0  0  0
 45 87  1  0  0  0  0
 45 88  1  0  0  0  0
 46 50  1  0  0  0  0
 46 89  1  1  0  0  0
 47 90  1  0  0  0  0
 48 91  1  0  0  0  0
 48 92  1  0  0  0  0
 50 93  1  0  0  0  0
 50 94  1  0  0  0  0
M  CHG  1  10  -1
M  END
>  <COMPND>
    title: molecule 1

$$$$
6NV2_ligand0.pdb
 OpenBabel06042612053D

 79 82  0  0  1  0  0  0  0  0999 V2000
   17.5050   20.8180   -3.9740 C   0  0  2  0  0  0  0  0  0  0  0  0
   16.8260   20.7660   -2.7560 O   0  0  0  0  0  0  0  0  0  0  0  0
   16.4840   20.9500   -5.0900 C   0  0  2  0  0  0  0  0  0  0  0  0
   15.7520   22.1590   -4.8840 O   0  0  0  0  0  0  0  0  0  0  0  0
   15.5720   19.7900   -5.1070 C   0  0  1  0  0  0  0  0  0  0  0  0
   14.6380   19.9210   -6.2290 O   0  0  0  0  0  0  0  0  0  0  0  0
   16.3560   18.5350   -5.2640 C   0  0  2  0  0  0  0  0  0  0  0  0
   15.4720   17.4170   -5.1430 O   0  0  0  0  0  0  0  0  0  0  0  0
   17.4540   18.4060   -4.2070 C   0  0  2  0  0  0  0  0  0  0  0  0
   18.3010   19.5870   -4.1660 O   0  0  0  0  0  0  0  0  0  0  0  0
   18.3170   17.2190   -4.5030 C   0  0  0  0  0  0  0  0  0  0  0  0
   18.9510   17.4240   -5.7510 O   0  0  0  0  0  0  0  0  0  0  0  0
   21.9280   21.0650    4.1610 O   0  0  0  0  0  0  0  0  0  0  0  0
   17.9160   22.3590    0.5250 C   0  0  2  0  0  0  0  0  0  0  0  0
   17.8630   21.2340    1.5840 C   0  0  1  0  0  0  0  0  0  0  0  0
   18.9870   20.4650    1.7280 C   0  0  0  0  0  0  0  0  0  0  0  0
   19.4870   19.2910    0.9550 C   0  0  0  0  0  0  0  0  0  0  0  0
   18.9820   18.8650   -0.4180 C   0  0  2  0  0  0  0  0  0  0  0  0
   17.7500   19.5470   -0.8810 C   0  0  0  0  0  0  0  0  0  0  0  0
   17.6640   20.9190   -1.6430 C   0  0  2  0  0  0  0  0  0  0  0  0
   17.0840   22.0500   -0.7390 C   0  0  2  0  0  0  0  0  0  0  0  0
   18.5370   17.3600   -0.2790 C   0  0  0  0  0  0  0  0  0  0  0  0
   17.0310   17.4790    0.2120 C   0  0  0  0  0  0  0  0  0  0  0  0
   16.5310   18.7100   -0.4440 C   0  0  0  0  0  0  0  0  0  0  0  0
   17.7140   21.9510    3.0540 C   0  0  0  0  0  0  0  0  0  0  0  0
   19.2450   22.0080    3.5880 C   0  0  0  0  0  0  0  0  0  0  0  0
   19.7730   20.8190    3.1970 C   0  0  2  0  0  0  0  0  0  0  0  0
   21.2660   20.8840    2.9220 C   0  0  0  0  0  0  0  0  0  0  0  0
   19.3690   22.6940    0.1020 C   0  0  0  0  0  0  0  0  0  0  0  0
   17.0070   23.2260   -1.5150 O   0  0  0  0  0  0  0  0  0  0  0  0
   15.0430   19.0810   -0.7160 C   0  0  0  0  0  0  0  0  0  0  0  0
   14.2940   19.3540    0.6070 C   0  0  0  0  0  0  0  0  0  0  0  0
   14.3520   17.9300   -1.5330 C   0  0  0  0  0  0  0  0  0  0  0  0
   20.1180   18.9850   -1.4420 C   0  0  0  0  0  0  0  0  0  0  0  0
   23.2990   21.4860    4.1250 C   0  0  0  0  0  0  0  0  0  0  0  0
   18.2000   21.6690   -3.9700 H   0  0  0  0  0  0  0  0  0  0  0  0
   17.0190   21.0260   -6.0380 H   0  0  0  0  0  0  0  0  0  0  0  0
   15.3210   22.1220   -4.0170 H   0  0  0  0  0  0  0  0  0  0  0  0
   14.9930   19.7530   -4.1820 H   0  0  0  0  0  0  0  0  0  0  0  0
   14.1360   20.7400   -6.1080 H   0  0  0  0  0  0  0  0  0  0  0  0
   16.7840   18.5310   -6.2680 H   0  0  0  0  0  0  0  0  0  0  0  0
   14.7740   17.5240   -5.8010 H   0  0  0  0  0  0  0  0  0  0  0  0
   17.0040   18.2670   -3.2260 H   0  0  0  0  0  0  0  0  0  0  0  0
   17.7470   16.2920   -4.5200 H   0  0  0  0  0  0  0  0  0  0  0  0
   19.0810   17.0940   -3.7380 H   0  0  0  0  0  0  0  0  0  0  0  0
   19.7610   16.8860   -5.7840 H   0  0  0  0  0  0  0  0  0  0  0  0
   17.4820   23.2680    0.9420 H   0  0  0  0  0  0  0  0  0  0  0  0
   16.9840   20.6080    1.4490 H   0  0  0  0  0  0  0  0  0  0  0  0
   20.3450   18.7420    1.3100 H   0  0  0  0  0  0  0  0  0  0  0  0
   18.6690   21.1950   -1.9550 H   0  0  0  0  0  0  0  0  0  0  0  0
   16.0660   21.8070   -0.4360 H   0  0  0  0  0  0  0  0  0  0  0  0
   19.1770   16.7560    0.3440 H   0  0  0  0  0  0  0  0  0  0  0  0
   18.5400   16.8890   -1.2630 H   0  0  0  0  0  0  0  0  0  0  0  0
   16.9700   17.5950    1.2920 H   0  0  0  0  0  0  0  0  0  0  0  0
   16.4560   16.5990   -0.0750 H   0  0  0  0  0  0  0  0  0  0  0  0
   17.1110   21.3210    3.7070 H   0  0  0  0  0  0  0  0  0  0  0  0
   17.2440   22.9270    3.0340 H   0  0  0  0  0  0  0  0  0  0  0  0
   19.2850   22.1900    4.6530 H   0  0  0  0  0  0  0  0  0  0  0  0
   19.7460   22.8550    3.1210 H   0  0  0  0  0  0  0  0  0  0  0  0
   19.5240   20.0400    3.9180 H   0  0  0  0  0  0  0  0  0  0  0  0
   21.6580   19.9720    2.4740 H   0  0  0  0  0  0  0  0  0  0  0  0
   21.4970   21.7030    2.2450 H   0  0  0  0  0  0  0  0  0  0  0  0
   19.3850   23.4790   -0.6510 H   0  0  0  0  0  0  0  0  0  0  0  0
   19.9450   23.0760    0.9410 H   0  0  0  0  0  0  0  0  0  0  0  0
   19.9200   21.8500   -0.3040 H   0  0  0  0  0  0  0  0  0  0  0  0
   16.3430   23.0770   -2.1770 H   0  0  0  0  0  0  0  0  0  0  0  0
   14.9950   19.9850   -1.3190 H   0  0  0  0  0  0  0  0  0  0  0  0
   13.2310   19.5060    0.4410 H   0  0  0  0  0  0  0  0  0  0  0  0
   14.3810   18.5110    1.2880 H   0  0  0  0  0  0  0  0  0  0  0  0
   14.6910   20.2320    1.1140 H   0  0  0  0  0  0  0  0  0  0  0  0
   13.3280   18.2010   -1.7900 H   0  0  0  0  0  0  0  0  0  0  0  0
   14.8790   17.7310   -2.4640 H   0  0  0  0  0  0  0  0  0  0  0  0
   14.3110   17.0010   -0.9650 H   0  0  0  0  0  0  0  0  0  0  0  0
   19.8040   18.7210   -2.4450 H   0  0  0  0  0  0  0  0  0  0  0  0
   20.5200   19.9930   -1.4690 H   0  0  0  0  0  0  0  0  0  0  0  0
   20.9470   18.3260   -1.1820 H   0  0  0  0  0  0  0  0  0  0  0  0
   23.7110   21.5060    5.1340 H   0  0  0  0  0  0  0  0  0  0  0  0
   23.8900   20.7970    3.5210 H   0  0  0  0  0  0  0  0  0  0  0  0
   23.3840   22.4860    3.7020 H   0  0  0  0  0  0  0  0  0  0  0  0
  1  2  1  0  0  0  0
  1  3  1  0  0  0  0
  1 10  1  0  0  0  0
  1 36  1  6  0  0  0
  2 20  1  0  0  0  0
  3  4  1  0  0  0  0
  3  5  1  0  0  0  0
  3 37  1  6  0  0  0
  4 38  1  0  0  0  0
  5  6  1  0  0  0  0
  5  7  1  0  0  0  0
  5 39  1  1  0  0  0
  6 40  1  0  0  0  0
  7  8  1  0  0  0  0
  7  9  1  0  0  0  0
  7 41  1  6  0  0  0
  8 42  1  0  0  0  0
  9 10  1  0  0  0  0
  9 11  1  0  0  0  0
  9 43  1  1  0  0  0
 11 12  1  0  0  0  0
 11 44  1  0  0  0  0
 11 45  1  0  0  0  0
 12 46  1  0  0  0  0
 13 28  1  0  0  0  0
 13 35  1  0  0  0  0
 14 15  1  0  0  0  0
 14 21  1  0  0  0  0
 14 29  1  0  0  0  0
 14 47  1  1  0  0  0
 15 16  1  0  0  0  0
 15 25  1  0  0  0  0
 15 48  1  6  0  0  0
 16 17  2  0  0  0  0
 16 27  1  0  0  0  0
 17 18  1  0  0  0  0
 17 49  1  0  0  0  0
 18 19  1  0  0  0  0
 18 22  1  0  0  0  0
 18 34  1  6  0  0  0
 19 20  1  0  0  0  0
 19 24  2  0  0  0  0
 20 21  1  0  0  0  0
 20 50  1  6  0  0  0
 21 30  1  0  0  0  0
 21 51  1  1  0  0  0
 22 23  1  0  0  0  0
 22 52  1  0  0  0  0
 22 53  1  0  0  0  0
 23 24  1  0  0  0  0
 23 54  1  0  0  0  0
 23 55  1  0  0  0  0
 24 31  1  0  0  0  0
 25 26  1  0  0  0  0
 25 56  1  0  0  0  0
 25 57  1  0  0  0  0
 26 27  1  0  0  0  0
 26 58  1  0  0  0  0
 26 59  1  0  0  0  0
 27 28  1  0  0  0  0
 27 60  1  1  0  0  0
 28 61  1  0  0  0  0
 28 62  1  0  0  0  0
 29 63  1  0  0  0  0
 29 64  1  0  0  0  0
 29 65  1  0  0  0  0
 30 66  1  0  0  0  0
 31 32  1  0  0  0  0
 31 33  1  0  0  0  0
 31 67  1  0  0  0  0
 32 68  1  0  0  0  0
 32 69  1  0  0  0  0
 32 70  1  0  0  0  0
 33 71  1  0  0  0  0
 33 72  1  0  0  0  0
 33 73  1  0  0  0  0
 34 74  1  0  0  0  0
 34 75  1  0  0  0  0
 34 76  1  0  0  0  0
 35 77  1  0  0  0  0
 35 78  1  0  0  0  0
 35 79  1  0  0  0  0
M  END
>  <COMPND>
    title: molecule 1

$$$$
6OB5_ligand0.pdb
 OpenBabel06042612053D

 49 48  0  0  0  0  0  0  0  0999 V2000
    7.6090  -63.8250   61.9510 C   0  0  0  0  0  0  0  0  0  0  0  0
    7.8040  -63.7780   63.3340 O   0  0  0  0  0  0  0  0  0  0  0  0
    7.7020  -65.2220   61.3270 C   0  0  0  0  0  0  0  0  0  0  0  0
    7.3820  -66.3580   61.9270 C   0  0  0  0  0  0  0  0  0  0  0  0
    6.8750  -66.3920   63.3680 C   0  0  0  0  0  0  0  0  0  0  0  0
    7.5390  -67.6240   61.0740 C   0  0  0  0  0  0  0  0  0  0  0  0
    7.5620  -68.9580   61.8200 C   0  0  0  0  0  0  0  0  0  0  0  0
    7.4390  -70.2150   60.9280 C   0  0  0  0  0  0  0  0  0  0  0  0
    7.8350  -70.4080   59.6630 C   0  0  0  0  0  0  0  0  0  0  0  0
    7.5700  -71.7920   59.0690 C   0  0  0  0  0  0  0  0  0  0  0  0
    8.5340  -69.4040   58.7380 C   0  0  0  0  0  0  0  0  0  0  0  0
    7.5180  -68.4190   58.1590 C   0  0  0  0  0  0  0  0  0  0  0  0
    7.4100  -68.4470   56.6370 C   0  0  0  0  0  0  0  0  0  0  0  0
    6.7190  -67.4930   56.0360 C   0  0  0  0  0  0  0  0  0  0  0  0
    6.5750  -67.4710   54.5190 C   0  0  0  0  0  0  0  0  0  0  0  0
    6.0480  -66.3880   56.8500 C   0  0  0  0  0  0  0  0  0  0  0  0
    7.5940  -62.2920   64.0250 P   0  0  1  0  0  0  0  0  0  0  0  0
    6.3390  -62.2730   64.8650 O   0  5  0  0  0  0  0  0  0  0  0  0
    8.7850  -61.9500   64.8920 O   0  0  0  0  0  0  0  0  0  0  0  0
    7.4290  -61.1640   62.8350 O   0  0  0  0  0  0  0  0  0  0  0  0
    8.6810  -60.3110   62.1910 P   0  3  0  0  0  0  0  0  0  0  0  0
    9.9800  -60.7510   62.8260 O   0  5  0  0  0  0  0  0  0  0  0  0
    8.7380  -60.5490   60.7020 O   0  0  0  0  0  0  0  0  0  0  0  0
    8.4640  -58.8390   62.4520 O   0  0  0  0  0  0  0  0  0  0  0  0
    8.4080  -63.2400   61.4950 H   0  0  0  0  0  0  0  0  0  0  0  0
    6.6800  -63.3470   61.6660 H   0  0  0  0  0  0  0  0  0  0  0  0
    8.0430  -65.2380   60.3010 H   0  0  0  0  0  0  0  0  0  0  0  0
    6.2590  -67.2670   63.5450 H   0  0  0  0  0  0  0  0  0  0  0  0
    7.7190  -66.4060   64.0560 H   0  0  0  0  0  0  0  0  0  0  0  0
    6.2400  -65.5360   63.5630 H   0  0  0  0  0  0  0  0  0  0  0  0
    8.4500  -67.4850   60.5050 H   0  0  0  0  0  0  0  0  0  0  0  0
    6.6670  -67.6060   60.4260 H   0  0  0  0  0  0  0  0  0  0  0  0
    6.6780  -69.0200   62.4510 H   0  0  0  0  0  0  0  0  0  0  0  0
    8.3970  -69.0570   62.4930 H   0  0  0  0  0  0  0  0  0  0  0  0
    6.9830  -71.0450   61.4430 H   0  0  0  0  0  0  0  0  0  0  0  0
    7.3510  -71.6680   58.0160 H   0  0  0  0  0  0  0  0  0  0  0  0
    8.4640  -72.4080   59.1550 H   0  0  0  0  0  0  0  0  0  0  0  0
    6.7450  -72.3160   59.5520 H   0  0  0  0  0  0  0  0  0  0  0  0
    9.0250  -69.9690   57.9470 H   0  0  0  0  0  0  0  0  0  0  0  0
    9.3480  -68.9040   59.2580 H   0  0  0  0  0  0  0  0  0  0  0  0
    7.8090  -67.4080   58.4410 H   0  0  0  0  0  0  0  0  0  0  0  0
    6.5200  -68.6300   58.5440 H   0  0  0  0  0  0  0  0  0  0  0  0
    7.8900  -69.2430   56.0870 H   0  0  0  0  0  0  0  0  0  0  0  0
    5.5250  -67.5260   54.2420 H   0  0  0  0  0  0  0  0  0  0  0  0
    6.9880  -66.5440   54.1200 H   0  0  0  0  0  0  0  0  0  0  0  0
    7.0940  -68.2960   54.0520 H   0  0  0  0  0  0  0  0  0  0  0  0
    5.1550  -66.0520   56.3230 H   0  0  0  0  0  0  0  0  0  0  0  0
    5.7360  -66.6710   57.8530 H   0  0  0  0  0  0  0  0  0  0  0  0
    6.7180  -65.5320   56.9280 H   0  0  0  0  0  0  0  0  0  0  0  0
  1  2  1  0  0  0  0
  1  3  1  0  0  0  0
  1 25  1  0  0  0  0
  1 26  1  0  0  0  0
  2 17  1  0  0  0  0
  3  4  2  0  0  0  0
  3 27  1  0  0  0  0
  4  5  1  0  0  0  0
  4  6  1  0  0  0  0
  5 28  1  0  0  0  0
  5 29  1  0  0  0  0
  5 30  1  0  0  0  0
  6  7  1  0  0  0  0
  6 31  1  0  0  0  0
  6 32  1  0  0  0  0
  7  8  1  0  0  0  0
  7 33  1  0  0  0  0
  7 34  1  0  0  0  0
  8  9  2  0  0  0  0
  8 35  1  0  0  0  0
  9 10  1  0  0  0  0
  9 11  1  0  0  0  0
 10 36  1  0  0  0  0
 10 37  1  0  0  0  0
 10 38  1  0  0  0  0
 11 12  1  0  0  0  0
 11 39  1  0  0  0  0
 11 40  1  0  0  0  0
 12 13  1  0  0  0  0
 12 41  1  0  0  0  0
 12 42  1  0  0  0  0
 13 14  2  0  0  0  0
 13 43  1  0  0  0  0
 14 15  1  0  0  0  0
 14 16  1  0  0  0  0
 15 44  1  0  0  0  0
 15 45  1  0  0  0  0
 15 46  1  0  0  0  0
 16 47  1  0  0  0  0
 16 48  1  0  0  0  0
 16 49  1  0  0  0  0
 17 18  1  1  0  0  0
 17 19  2  0  0  0  0
 17 20  1  0  0  0  0
 20 21  1  0  0  0  0
 21 22  1  0  0  0  0
 21 23  2  0  0  0  0
 21 24  2  0  0  0  0
M  CHG  3  18  -1  21   1  22  -1
M  END
>  <COMPND>
    title: molecule 1

$$$$
6OQA_ligand0.pdb
 OpenBabel06042612053D

 95 98  0  0  1  0  0  0  0  0999 V2000
  -18.8610   -9.6390    3.1630 C   0  0  2  0  0  0  0  0  0  0  0  0
  -17.1550   -8.3330    1.9810 C   0  0  1  0  0  0  0  0  0  0  0  0
  -18.2480   -7.4700    1.3220 C   0  0  0  0  0  0  0  0  0  0  0  0
  -15.8660   -7.5280    2.2350 C   0  0  1  0  0  0  0  0  0  0  0  0
  -14.8960   -8.2450    3.2070 C   0  0  1  0  0  0  0  0  0  0  0  0
  -12.7670   -8.3070    4.5150 C   0  0  0  0  0  0  0  0  0  0  0  0
  -13.5790   -6.0620    3.7130 C   0  0  0  0  0  0  0  0  0  0  0  0
  -14.1480   -5.6700    5.0560 C   0  0  0  0  0  0  0  0  0  0  0  0
  -15.2560   -4.0010    6.5200 C   0  0  0  0  0  0  0  0  0  0  0  0
  -17.6380   -4.2420    5.8720 C   0  0  0  0  0  0  0  0  0  0  0  0
  -20.8030   -9.3790    5.6980 O   0  0  0  0  0  0  0  0  0  0  0  0
  -19.5900   -9.3550    5.6950 C   0  0  0  0  0  0  0  0  0  0  0  0
  -18.9840  -10.1220    4.5810 C   0  0  0  0  0  0  0  0  0  0  0  0
  -18.5260  -11.2090    4.8540 O   0  0  0  0  0  0  0  0  0  0  0  0
  -18.7620  -10.8090    2.3310 O   0  0  0  0  0  0  0  0  0  0  0  0
  -17.6770   -8.8150    3.2200 O   0  0  0  0  0  0  0  0  0  0  0  0
  -19.5750   -8.2360    1.2230 C   0  0  0  0  0  0  0  0  0  0  0  0
  -20.0180   -8.8200    2.5750 C   0  0  1  0  0  0  0  0  0  0  0  0
  -21.2940   -9.6410    2.3380 C   0  0  0  0  0  0  0  0  0  0  0  0
  -15.1880   -7.3130    0.8770 C   0  0  0  0  0  0  0  0  0  0  0  0
  -14.6610   -9.5830    2.7310 O   0  0  0  0  0  0  0  0  0  0  0  0
  -13.5200   -7.5730    3.3950 C   0  0  2  0  0  0  0  0  0  0  0  0
  -14.7040   -4.4900    5.2020 C   0  0  0  0  0  0  0  0  0  0  0  0
  -16.7130   -4.3130    6.7850 C   0  0  0  0  0  0  0  0  0  0  0  0
  -19.0620   -4.5710    6.2670 C   0  0  2  0  0  0  0  0  0  0  0  0
  -19.1870   -6.0000    6.4520 O   0  0  0  0  0  0  0  0  0  0  0  0
  -19.6200   -6.5250    7.5920 C   0  0  0  0  0  0  0  0  0  0  0  0
  -19.9580   -5.8650    8.5520 O   0  0  0  0  0  0  0  0  0  0  0  0
  -19.6170   -8.0110    7.7910 C   0  0  2  0  0  0  0  0  0  0  0  0
  -19.0850   -8.7180    9.0610 C   0  0  0  0  0  0  0  0  0  0  0  0
  -17.5470   -8.4410    9.1990 C   0  0  0  0  0  0  0  0  0  0  0  0
  -16.8230   -9.1060    8.0460 C   0  0  0  0  0  0  0  0  0  0  0  0
  -17.4040   -8.6550    6.7100 C   0  0  0  0  0  0  0  0  0  0  0  0
  -18.8850   -8.7070    6.6810 N   0  0  0  0  0  0  0  0  0  0  0  0
  -20.1090   -4.1520    5.2140 C   0  0  1  0  0  0  0  0  0  0  0  0
  -20.1470   -2.6260    5.0740 C   0  0  0  0  0  0  0  0  0  0  0  0
  -20.5930   -1.9720    6.3590 C   0  0  0  0  0  0  0  0  0  0  0  0
  -21.9070   -2.0890    6.7920 C   0  0  0  0  0  0  0  0  0  0  0  0
  -22.3160   -1.4810    7.9710 C   0  0  0  0  0  0  0  0  0  0  0  0
  -21.4080   -0.7600    8.7270 C   0  0  0  0  0  0  0  0  0  0  0  0
  -20.0980   -0.6430    8.2990 C   0  0  0  0  0  0  0  0  0  0  0  0
  -19.6880   -1.2450    7.1180 C   0  0  0  0  0  0  0  0  0  0  0  0
  -19.8380   -4.8100    3.8460 C   0  0  0  0  0  0  0  0  0  0  0  0
  -21.0890   -4.7490    2.9600 C   0  0  0  0  0  0  0  0  0  0  0  0
  -16.9350   -9.1920    1.3450 H   0  0  0  0  0  0  0  0  0  0  0  0
  -17.9580   -7.1430    0.3250 H   0  0  0  0  0  0  0  0  0  0  0  0
  -18.4060   -6.5670    1.9110 H   0  0  0  0  0  0  0  0  0  0  0  0
  -16.1350   -6.5630    2.6660 H   0  0  0  0  0  0  0  0  0  0  0  0
  -15.3800   -8.3220    4.1810 H   0  0  0  0  0  0  0  0  0  0  0  0
  -11.8360   -7.7990    4.7670 H   0  0  0  0  0  0  0  0  0  0  0  0
  -13.3550   -8.3990    5.4280 H   0  0  0  0  0  0  0  0  0  0  0  0
  -12.4990   -9.3180    4.2080 H   0  0  0  0  0  0  0  0  0  0  0  0
  -12.5560   -5.6840    3.7010 H   0  0  0  0  0  0  0  0  0  0  0  0
  -14.0860   -5.5130    2.9200 H   0  0  0  0  0  0  0  0  0  0  0  0
  -14.0390   -6.3390    5.8930 H   0  0  0  0  0  0  0  0  0  0  0  0
  -15.0920   -2.9270    6.6070 H   0  0  0  0  0  0  0  0  0  0  0  0
  -14.6770   -4.4590    7.3210 H   0  0  0  0  0  0  0  0  0  0  0  0
  -17.4090   -3.9770    4.8520 H   0  0  0  0  0  0  0  0  0  0  0  0
  -18.0470  -11.3310    2.6680 H   0  0  0  0  0  0  0  0  0  0  0  0
  -19.4680   -9.0300    0.4830 H   0  0  0  0  0  0  0  0  0  0  0  0
  -20.3470   -7.5700    0.8360 H   0  0  0  0  0  0  0  0  0  0  0  0
  -20.2390   -7.9990    3.2570 H   0  0  0  0  0  0  0  0  0  0  0  0
  -22.1050   -8.9940    2.0010 H   0  0  0  0  0  0  0  0  0  0  0  0
  -21.1680  -10.4140    1.5800 H   0  0  0  0  0  0  0  0  0  0  0  0
  -21.6360  -10.1290    3.2500 H   0  0  0  0  0  0  0  0  0  0  0  0
  -14.2720   -6.7310    0.9540 H   0  0  0  0  0  0  0  0  0  0  0  0
  -14.9350   -8.2570    0.3920 H   0  0  0  0  0  0  0  0  0  0  0  0
  -15.8200   -6.7530    0.1910 H   0  0  0  0  0  0  0  0  0  0  0  0
  -15.4240  -10.1200    2.9010 H   0  0  0  0  0  0  0  0  0  0  0  0
  -12.9360   -7.6900    2.4820 H   0  0  0  0  0  0  0  0  0  0  0  0
  -14.8080   -3.8240    4.3620 H   0  0  0  0  0  0  0  0  0  0  0  0
  -16.9740   -4.5640    7.8030 H   0  0  0  0  0  0  0  0  0  0  0  0
  -19.2610   -4.0500    7.2040 H   0  0  0  0  0  0  0  0  0  0  0  0
  -20.6730   -8.2820    7.7890 H   0  0  0  0  0  0  0  0  0  0  0  0
  -19.2880   -9.7880    9.0140 H   0  0  0  0  0  0  0  0  0  0  0  0
  -19.6060   -8.3200    9.9300 H   0  0  0  0  0  0  0  0  0  0  0  0
  -17.1660   -8.8250   10.1390 H   0  0  0  0  0  0  0  0  0  0  0  0
  -17.3480   -7.3690    9.2080 H   0  0  0  0  0  0  0  0  0  0  0  0
  -16.9220  -10.1890    8.1360 H   0  0  0  0  0  0  0  0  0  0  0  0
  -15.7550   -8.8890    8.0870 H   0  0  0  0  0  0  0  0  0  0  0  0
  -16.9300   -9.2400    5.9230 H   0  0  0  0  0  0  0  0  0  0  0  0
  -17.0960   -7.6270    6.5180 H   0  0  0  0  0  0  0  0  0  0  0  0
  -21.0810   -4.4910    5.5710 H   0  0  0  0  0  0  0  0  0  0  0  0
  -20.8500   -2.3210    4.3020 H   0  0  0  0  0  0  0  0  0  0  0  0
  -19.1790   -2.2310    4.7630 H   0  0  0  0  0  0  0  0  0  0  0  0
  -22.6190   -2.6580    6.2130 H   0  0  0  0  0  0  0  0  0  0  0  0
  -23.3390   -1.5780    8.3050 H   0  0  0  0  0  0  0  0  0  0  0  0
  -21.7200   -0.2870    9.6470 H   0  0  0  0  0  0  0  0  0  0  0  0
  -19.3920   -0.0670    8.8740 H   0  0  0  0  0  0  0  0  0  0  0  0
  -18.6590   -1.1530    6.8040 H   0  0  0  0  0  0  0  0  0  0  0  0
  -19.5660   -5.8570    3.9730 H   0  0  0  0  0  0  0  0  0  0  0  0
  -19.0030   -4.3350    3.3320 H   0  0  0  0  0  0  0  0  0  0  0  0
  -20.9080   -5.2770    2.0240 H   0  0  0  0  0  0  0  0  0  0  0  0
  -21.9400   -5.2300    3.4230 H   0  0  0  0  0  0  0  0  0  0  0  0
  -21.3730   -3.7310    2.6990 H   0  0  0  0  0  0  0  0  0  0  0  0
  1 13  1  0  0  0  0
  1 15  1  6  0  0  0
  1 16  1  0  0  0  0
  1 18  1  0  0  0  0
  2  3  1  0  0  0  0
  2  4  1  0  0  0  0
  2 16  1  0  0  0  0
  2 45  1  6  0  0  0
  3 17  1  0  0  0  0
  3 46  1  0  0  0  0
  3 47  1  0  0  0  0
  4  5  1  0  0  0  0
  4 20  1  0  0  0  0
  4 48  1  1  0  0  0
  5 21  1  0  0  0  0
  5 22  1  0  0  0  0
  5 49  1  1  0  0  0
  6 22  1  0  0  0  0
  6 50  1  0  0  0  0
  6 51  1  0  0  0  0
  6 52  1  0  0  0  0
  7  8  1  0  0  0  0
  7 22  1  0  0  0  0
  7 53  1  0  0  0  0
  7 54  1  0  0  0  0
  8 23  2  0  0  0  0
  8 55  1  0  0  0  0
  9 23  1  0  0  0  0
  9 24  1  0  0  0  0
  9 56  1  0  0  0  0
  9 57  1  0  0  0  0
 10 24  2  0  0  0  0
 10 25  1  0  0  0  0
 10 58  1  0  0  0  0
 11 12  2  0  0  0  0
 12 13  1  0  0  0  0
 12 34  1  0  0  0  0
 13 14  2  0  0  0  0
 15 59  1  0  0  0  0
 17 18  1  0  0  0  0
 17 60  1  0  0  0  0
 17 61  1  0  0  0  0
 18 19  1  0  0  0  0
 18 62  1  1  0  0  0
 19 63  1  0  0  0  0
 19 64  1  0  0  0  0
 19 65  1  0  0  0  0
 20 66  1  0  0  0  0
 20 67  1  0  0  0  0
 20 68  1  0  0  0  0
 21 69  1  0  0  0  0
 22 70  1  6  0  0  0
 23 71  1  0  0  0  0
 24 72  1  0  0  0  0
 25 26  1  0  0  0  0
 25 35  1  0  0  0  0
 25 73  1  1  0  0  0
 26 27  1  0  0  0  0
 27 28  2  0  0  0  0
 27 29  1  0  0  0  0
 29 30  1  0  0  0  0
 29 34  1  0  0  0  0
 29 74  1  6  0  0  0
 30 31  1  0  0  0  0
 30 75  1  0  0  0  0
 30 76  1  0  0  0  0
 31 32  1  0  0  0  0
 31 77  1  0  0  0  0
 31 78  1  0  0  0  0
 32 33  1  0  0  0  0
 32 79  1  0  0  0  0
 32 80  1  0  0  0  0
 33 34  1  0  0  0  0
 33 81  1  0  0  0  0
 33 82  1  0  0  0  0
 35 36  1  0  0  0  0
 35 43  1  0  0  0  0
 35 83  1  1  0  0  0
 36 37  1  0  0  0  0
 36 84  1  0  0  0  0
 36 85  1  0  0  0  0
 37 38  2  0  0  0  0
 37 42  1  0  0  0  0
 38 39  1  0  0  0  0
 38 86  1  0  0  0  0
 39 40  2  0  0  0  0
 39 87  1  0  0  0  0
 40 41  1  0  0  0  0
 40 88  1  0  0  0  0
 41 42  2  0  0  0  0
 41 89  1  0  0  0  0
 42 90  1  0  0  0  0
 43 44  1  0  0  0  0
 43 91  1  0  0  0  0
 43 92  1  0  0  0  0
 44 93  1  0  0  0  0
 44 94  1  0  0  0  0
 44 95  1  0  0  0  0
M  END
>  <COMPND>
    title: molecule 1

$$$$
6QDS_ligand0.pdb
 OpenBabel06042612053D

104108  0  0  1  0  0  0  0  0999 V2000
   17.8640   21.0210    1.7850 C   0  0  2  0  0  0  0  0  0  0  0  0
   17.7000   21.7270    2.9450 C   0  0  0  0  0  0  0  0  0  0  0  0
   19.1110   21.7680    3.6990 C   0  0  0  0  0  0  0  0  0  0  0  0
   19.8070   20.4230    3.2140 C   0  0  2  0  0  0  0  0  0  0  0  0
   21.3680   20.6500    3.0390 C   0  0  0  0  0  0  0  0  0  0  0  0
   23.3390   21.2680    4.2120 C   0  0  0  0  0  0  0  0  0  0  0  0
   19.2640   20.1440    1.9810 C   0  0  0  0  0  0  0  0  0  0  0  0
   19.6060   18.8710    1.2340 C   0  0  0  0  0  0  0  0  0  0  0  0
   19.0790   18.4040   -0.1400 C   0  0  2  0  0  0  0  0  0  0  0  0
   20.2380   18.5320   -1.1840 C   0  0  0  0  0  0  0  0  0  0  0  0
   17.8560   19.0650   -0.6520 C   0  0  0  0  0  0  0  0  0  0  0  0
   16.6490   18.2630   -0.1860 C   0  0  0  0  0  0  0  0  0  0  0  0
   15.1910   18.5650   -0.5400 C   0  0  2  0  0  0  0  0  0  0  0  0
   14.3800   18.5960    0.7500 C   0  0  0  0  0  0  0  0  0  0  0  0
   14.6600   17.4840   -1.4900 C   0  0  0  0  0  0  0  0  0  0  0  0
   12.2360   16.9190   -2.1270 C   0  0  0  0  0  0  0  0  0  0  0  0
   10.8400   17.4200   -2.5700 C   0  0  0  0  0  0  0  0  0  0  0  0
    9.6900   16.4500   -2.2870 C   0  0  0  0  0  0  0  0  0  0  0  0
   10.1970   16.6410   -3.7240 C   0  0  0  0  0  0  0  0  0  0  0  0
   17.1340   16.9930    0.4160 C   0  0  0  0  0  0  0  0  0  0  0  0
   18.6630   16.8890    0.0180 C   0  0  2  0  0  0  0  0  0  0  0  0
   17.7670   20.3580   -1.5230 C   0  0  2  0  0  0  0  0  0  0  0  0
   17.6060   20.3510   -3.8290 C   0  0  1  0  0  0  0  0  0  0  0  0
   17.8810   17.9630   -4.2620 C   0  0  2  0  0  0  0  0  0  0  0  0
   18.8950   16.8790   -4.6840 C   0  0  0  0  0  0  0  0  0  0  0  0
   20.3920   16.4690   -6.5740 C   0  0  0  0  0  0  0  0  0  0  0  0
   19.3650   15.6160   -7.3570 C   0  0  0  0  0  0  0  0  0  0  0  0
   21.2730   15.5690   -5.6740 C   0  0  0  0  0  0  0  0  0  0  0  0
   21.2990   17.1820   -7.6060 C   0  0  0  0  0  0  0  0  0  0  0  0
   22.0370   18.2360   -7.2530 C   0  0  0  0  0  0  0  0  0  0  0  0
   16.7820   18.0030   -5.3250 C   0  0  2  0  0  0  0  0  0  0  0  0
   15.8420   19.1520   -5.0920 C   0  0  1  0  0  0  0  0  0  0  0  0
   16.5960   20.4320   -4.9820 C   0  0  1  0  0  0  0  0  0  0  0  0
   17.1180   21.5010   -0.6680 C   0  0  1  0  0  0  0  0  0  0  0  0
   17.9070   22.0220    0.5720 C   0  0  2  0  0  0  0  0  0  0  0  0
   19.3580   22.3480    0.1730 C   0  0  0  0  0  0  0  0  0  0  0  0
   13.3100   17.9050   -1.9340 N   0  0  0  0  0  0  0  0  0  0  0  0
   21.9410   20.9710    4.2810 O   0  0  0  0  0  0  0  0  0  0  0  0
   12.4420   15.7550   -1.9380 O   0  0  0  0  0  0  0  0  0  0  0  0
   19.3330   16.2550    1.0070 O   0  0  0  0  0  0  0  0  0  0  0  0
   16.9320   20.1030   -2.6490 O   0  0  0  0  0  0  0  0  0  0  0  0
   18.5650   19.2370   -4.1110 O   0  0  0  0  0  0  0  0  0  0  0  0
   19.7040   17.4400   -5.7450 O   0  0  0  0  0  0  0  0  0  0  0  0
   16.0540   16.7700   -5.2500 O   0  0  0  0  0  0  0  0  0  0  0  0
   14.9050   19.1970   -6.2030 O   0  0  0  0  0  0  0  0  0  0  0  0
   15.6980   21.5260   -4.8130 O   0  0  0  0  0  0  0  0  0  0  0  0
   16.9170   22.6330   -1.4910 O   0  0  0  0  0  0  0  0  0  0  0  0
   17.0220   20.3380    1.6740 H   0  0  0  0  0  0  0  0  0  0  0  0
   17.0150   21.1730    3.5900 H   0  0  0  0  0  0  0  0  0  0  0  0
   17.2590   22.7160    2.8620 H   0  0  0  0  0  0  0  0  0  0  0  0
   18.9910   21.8430    4.7730 H   0  0  0  0  0  0  0  0  0  0  0  0
   19.6780   22.6390    3.3690 H   0  0  0  0  0  0  0  0  0  0  0  0
   19.5870   19.6040    3.8960 H   0  0  0  0  0  0  0  0  0  0  0  0
   21.5480   21.4620    2.3360 H   0  0  0  0  0  0  0  0  0  0  0  0
   21.8600   19.7610    2.6410 H   0  0  0  0  0  0  0  0  0  0  0  0
   23.7380   21.3980    5.2180 H   0  0  0  0  0  0  0  0  0  0  0  0
   23.8900   20.4600    3.7300 H   0  0  0  0  0  0  0  0  0  0  0  0
   23.5130   22.1910    3.6600 H   0  0  0  0  0  0  0  0  0  0  0  0
   20.4500   18.3310    1.6210 H   0  0  0  0  0  0  0  0  0  0  0  0
   19.9480   18.1820   -2.1720 H   0  0  0  0  0  0  0  0  0  0  0  0
   20.5880   19.5550   -1.2730 H   0  0  0  0  0  0  0  0  0  0  0  0
   21.0990   17.9520   -0.8650 H   0  0  0  0  0  0  0  0  0  0  0  0
   15.1130   19.5260   -1.0360 H   0  0  0  0  0  0  0  0  0  0  0  0
   13.3590   18.9340    0.5740 H   0  0  0  0  0  0  0  0  0  0  0  0
   14.3310   17.6060    1.1960 H   0  0  0  0  0  0  0  0  0  0  0  0
   14.8190   19.2760    1.4800 H   0  0  0  0  0  0  0  0  0  0  0  0
   14.6360   16.5170   -0.9940 H   0  0  0  0  0  0  0  0  0  0  0  0
   15.3000   17.3840   -2.3660 H   0  0  0  0  0  0  0  0  0  0  0  0
   10.6530   18.4910   -2.5220 H   0  0  0  0  0  0  0  0  0  0  0  0
    8.7380   16.9020   -2.0230 H   0  0  0  0  0  0  0  0  0  0  0  0
    9.8840   15.5240   -1.7790 H   0  0  0  0  0  0  0  0  0  0  0  0
   10.7590   15.8220   -4.1710 H   0  0  0  0  0  0  0  0  0  0  0  0
    9.5830   17.2100   -4.4180 H   0  0  0  0  0  0  0  0  0  0  0  0
   16.5880   16.1240    0.0520 H   0  0  0  0  0  0  0  0  0  0  0  0
   16.9890   17.0500    1.4940 H   0  0  0  0  0  0  0  0  0  0  0  0
   18.7690   16.3540   -0.9270 H   0  0  0  0  0  0  0  0  0  0  0  0
   18.7710   20.6520   -1.8210 H   0  0  0  0  0  0  0  0  0  0  0  0
   18.1800   21.2650   -3.7800 H   0  0  0  0  0  0  0  0  0  0  0  0
   17.4510   17.6840   -3.2990 H   0  0  0  0  0  0  0  0  0  0  0  0
   18.3970   15.9430   -4.9200 H   0  0  0  0  0  0  0  0  0  0  0  0
   19.5490   16.6620   -3.8410 H   0  0  0  0  0  0  0  0  0  0  0  0
   18.6880   16.2500   -7.9310 H   0  0  0  0  0  0  0  0  0  0  0  0
   19.8670   14.9520   -8.0630 H   0  0  0  0  0  0  0  0  0  0  0  0
   18.7600   14.9670   -6.7270 H   0  0  0  0  0  0  0  0  0  0  0  0
   21.9340   16.1620   -5.0400 H   0  0  0  0  0  0  0  0  0  0  0  0
   20.6780   14.9190   -5.0320 H   0  0  0  0  0  0  0  0  0  0  0  0
   21.8980   14.9120   -6.2790 H   0  0  0  0  0  0  0  0  0  0  0  0
   21.2590   16.6970   -8.5560 H   0  0  0  0  0  0  0  0  0  0  0  0
   22.7150   18.7440   -7.9130 H   0  0  0  0  0  0  0  0  0  0  0  0
   22.0010   18.5740   -6.2380 H   0  0  0  0  0  0  0  0  0  0  0  0
   17.2270   18.0930   -6.3180 H   0  0  0  0  0  0  0  0  0  0  0  0
   15.2630   18.9800   -4.1830 H   0  0  0  0  0  0  0  0  0  0  0  0
   17.1600   20.6130   -5.8970 H   0  0  0  0  0  0  0  0  0  0  0  0
   16.1250   21.2220   -0.3250 H   0  0  0  0  0  0  0  0  0  0  0  0
   17.4310   22.9660    0.8390 H   0  0  0  0  0  0  0  0  0  0  0  0
   19.3910   23.0750   -0.6380 H   0  0  0  0  0  0  0  0  0  0  0  0
   19.8970   22.7940    1.0060 H   0  0  0  0  0  0  0  0  0  0  0  0
   19.9320   21.4830   -0.1500 H   0  0  0  0  0  0  0  0  0  0  0  0
   13.1450   18.8860   -2.1480 H   0  0  0  0  0  0  0  0  0  0  0  0
   19.1730   16.7150    1.8200 H   0  0  0  0  0  0  0  0  0  0  0  0
   15.3440   16.8190   -5.8720 H   0  0  0  0  0  0  0  0  0  0  0  0
   14.1260   19.6660   -5.9220 H   0  0  0  0  0  0  0  0  0  0  0  0
   15.2450   21.4530   -3.9780 H   0  0  0  0  0  0  0  0  0  0  0  0
   16.1600   22.4610   -2.0390 H   0  0  0  0  0  0  0  0  0  0  0  0
  1  2  1  0  0  0  0
  1  7  1  0  0  0  0
  1 35  1  0  0  0  0
  1 48  1  6  0  0  0
  2  3  1  0  0  0  0
  2 49  1  0  0  0  0
  2 50  1  0  0  0  0
  3  4  1  0  0  0  0
  3 51  1  0  0  0  0
  3 52  1  0  0  0  0
  4  5  1  0  0  0  0
  4  7  1  0  0  0  0
  4 53  1  1  0  0  0
  5 38  1  0  0  0  0
  5 54  1  0  0  0  0
  5 55  1  0  0  0  0
  6 38  1  0  0  0  0
  6 56  1  0  0  0  0
  6 57  1  0  0  0  0
  6 58  1  0  0  0  0
  7  8  2  0  0  0  0
  8  9  1  0  0  0  0
  8 59  1  0  0  0  0
  9 10  1  6  0  0  0
  9 11  1  0  0  0  0
  9 21  1  0  0  0  0
 10 60  1  0  0  0  0
 10 61  1  0  0  0  0
 10 62  1  0  0  0  0
 11 12  2  0  0  0  0
 11 22  1  0  0  0  0
 12 13  1  0  0  0  0
 12 20  1  0  0  0  0
 13 14  1  0  0  0  0
 13 15  1  0  0  0  0
 13 63  1  6  0  0  0
 14 64  1  0  0  0  0
 14 65  1  0  0  0  0
 14 66  1  0  0  0  0
 15 37  1  0  0  0  0
 15 67  1  0  0  0  0
 15 68  1  0  0  0  0
 16 17  1  0  0  0  0
 16 37  1  0  0  0  0
 16 39  2  0  0  0  0
 17 18  1  0  0  0  0
 17 19  1  0  0  0  0
 17 69  1  0  0  0  0
 18 19  1  0  0  0  0
 18 70  1  0  0  0  0
 18 71  1  0  0  0  0
 19 72  1  0  0  0  0
 19 73  1  0  0  0  0
 20 21  1  0  0  0  0
 20 74  1  0  0  0  0
 20 75  1  0  0  0  0
 21 40  1  0  0  0  0
 21 76  1  6  0  0  0
 22 34  1  0  0  0  0
 22 41  1  0  0  0  0
 22 77  1  6  0  0  0
 23 33  1  0  0  0  0
 23 41  1  0  0  0  0
 23 42  1  0  0  0  0
 23 78  1  1  0  0  0
 24 25  1  0  0  0  0
 24 31  1  0  0  0  0
 24 42  1  0  0  0  0
 24 79  1  1  0  0  0
 25 43  1  0  0  0  0
 25 80  1  0  0  0  0
 25 81  1  0  0  0  0
 26 27  1  0  0  0  0
 26 28  1  0  0  0  0
 26 29  1  0  0  0  0
 26 43  1  0  0  0  0
 27 82  1  0  0  0  0
 27 83  1  0  0  0  0
 27 84  1  0  0  0  0
 28 85  1  0  0  0  0
 28 86  1  0  0  0  0
 28 87  1  0  0  0  0
 29 30  2  0  0  0  0
 29 88  1  0  0  0  0
 30 89  1  0  0  0  0
 30 90  1  0  0  0  0
 31 32  1  0  0  0  0
 31 44  1  0  0  0  0
 31 91  1  6  0  0  0
 32 33  1  0  0  0  0
 32 45  1  0  0  0  0
 32 92  1  1  0  0  0
 33 46  1  0  0  0  0
 33 93  1  6  0  0  0
 34 35  1  0  0  0  0
 34 47  1  0  0  0  0
 34 94  1  1  0  0  0
 35 36  1  0  0  0  0
 35 95  1  1  0  0  0
 36 96  1  0  0  0  0
 36 97  1  0  0  0  0
 36 98  1  0  0  0  0
 37 99  1  0  0  0  0
 40100  1  0  0  0  0
 44101  1  0  0  0  0
 45102  1  0  0  0  0
 46103  1  0  0  0  0
 47104  1  0  0  0  0
M  END
>  <COMPND>
    title: molecule 1

$$$$
6TL3_ligand0.pdb
 OpenBabel06042612053D

 52 55  0  0  1  0  0  0  0  0999 V2000
   32.4020   17.0440   11.7360 C   0  0  0  0  0  0  0  0  0  0  0  0
   33.2250   13.3070   12.6870 C   0  0  0  0  0  0  0  0  0  0  0  0
   32.7770   15.7270   12.5950 C   0  0  0  0  0  0  0  0  0  0  0  0
   33.4280   13.3920   14.0770 C   0  0  0  0  0  0  0  0  0  0  0  0
   32.8760   14.4600   11.7880 C   0  0  0  0  0  0  0  0  0  0  0  0
   33.3260   14.6390   14.8100 C   0  0  0  0  0  0  0  0  0  0  0  0
   32.6510   14.0680   17.5550 C   0  0  1  0  0  0  0  0  0  0  0  0
   34.5330   15.5110   17.0200 C   0  0  0  0  0  0  0  0  0  0  0  0
   35.4510   16.2190   16.6100 O   0  0  0  0  0  0  0  0  0  0  0  0
   32.7780   14.3550   20.1480 C   0  0  0  0  0  0  0  0  0  0  0  0
   31.4980   13.3370   20.3120 C   0  0  0  0  0  0  0  0  0  0  0  0
   30.2450   13.8030   20.8350 C   0  0  0  0  0  0  0  0  0  0  0  0
   29.1260   12.9300   20.9760 C   0  0  0  0  0  0  0  0  0  0  0  0
   29.2240   11.5650   20.5770 C   0  0  0  0  0  0  0  0  0  0  0  0
   30.4460   11.0770   20.0400 C   0  0  0  0  0  0  0  0  0  0  0  0
   31.5640   11.9580   19.9090 C   0  0  0  0  0  0  0  0  0  0  0  0
   33.1450   14.6710   18.8710 C   0  0  0  0  0  0  0  0  0  0  0  0
   32.9840   15.7860   13.9660 C   0  0  0  0  0  0  0  0  0  0  0  0
   34.4000   15.3820   18.5330 C   0  0  0  0  0  0  0  0  0  0  0  0
   31.2030   14.5070   17.3810 C   0  0  0  0  0  0  0  0  0  0  0  0
   30.9420   15.8920   17.4460 C   0  0  0  0  0  0  0  0  0  0  0  0
   29.6140   16.3610   17.3020 C   0  0  0  0  0  0  0  0  0  0  0  0
   28.5520   15.4320   17.0870 C   0  0  0  0  0  0  0  0  0  0  0  0
   28.8310   14.0330   17.0190 C   0  0  0  0  0  0  0  0  0  0  0  0
   30.1620   13.5580   17.1650 C   0  0  0  0  0  0  0  0  0  0  0  0
   33.1220   15.3080   21.2350 N   0  0  0  0  0  0  0  0  0  0  0  0
   33.5420   14.7510   16.3260 N   0  0  0  0  0  0  0  0  0  0  0  0
   27.0420   15.8870   16.9030 N   0  0  0  0  0  0  0  0  0  0  0  0
   32.7000   14.3730   10.5680 O   0  0  0  0  0  0  0  0  0  0  0  0
   32.2930   16.9320   10.4870 O   0  5  0  0  0  0  0  0  0  0  0  0
   32.2320   18.1080   12.3830 O   0  0  0  0  0  0  0  0  0  0  0  0
   35.1950   15.8100   19.3470 O   0  0  0  0  0  0  0  0  0  0  0  0
   26.1830   15.1680   16.5050 O   0  0  0  0  0  0  0  0  0  0  0  0
   26.8700   17.0620   17.1860 O   0  0  0  0  0  0  0  0  0  0  0  0
   33.3330   12.3360   12.2370 H   0  0  0  0  0  0  0  0  0  0  0  0
   33.6730   12.4910   14.6200 H   0  0  0  0  0  0  0  0  0  0  0  0
   32.7290   12.9960   17.5760 H   0  0  0  0  0  0  0  0  0  0  0  0
   30.1540   14.8320   21.1510 H   0  0  0  0  0  0  0  0  0  0  0  0
   28.2350   13.3000   21.4520 H   0  0  0  0  0  0  0  0  0  0  0  0
   28.3810   10.9010   20.6970 H   0  0  0  0  0  0  0  0  0  0  0  0
   30.5340   10.0450   19.7340 H   0  0  0  0  0  0  0  0  0  0  0  0
   32.4910   11.5760   19.5120 H   0  0  0  0  0  0  0  0  0  0  0  0
   32.8800   16.7410   14.4550 H   0  0  0  0  0  0  0  0  0  0  0  0
   31.7210   16.5660   17.7250 H   0  0  0  0  0  0  0  0  0  0  0  0
   29.4190   17.4200   17.3780 H   0  0  0  0  0  0  0  0  0  0  0  0
   28.0290   13.3350   16.8440 H   0  0  0  0  0  0  0  0  0  0  0  0
   30.3770   12.5010   17.1100 H   0  0  0  0  0  0  0  0  0  0  0  0
   33.8680   15.9790   21.1200 H   0  0  0  0  0  0  0  0  0  0  0  0
   32.7950   15.1660   22.1840 H   0  0  0  0  0  0  0  0  0  0  0  0
   32.5200   15.2320   10.2040 H   0  0  0  0  0  0  0  0  0  0  0  0
   26.2550   15.1910   15.5650 H   0  0  0  0  0  0  0  0  0  0  0  0
   26.8600   17.0860   18.1300 H   0  0  0  0  0  0  0  0  0  0  0  0
  1  3  1  0  0  0  0
  1 30  1  0  0  0  0
  1 31  2  0  0  0  0
  2  4  2  0  0  0  0
  2  5  1  0  0  0  0
  2 35  1  0  0  0  0
  3  5  2  0  0  0  0
  3 18  1  0  0  0  0
  4  6  1  0  0  0  0
  4 36  1  0  0  0  0
  5 29  1  0  0  0  0
  6 18  2  0  0  0  0
  6 27  1  0  0  0  0
  7 17  1  0  0  0  0
  7 20  1  0  0  0  0
  7 27  1  0  0  0  0
  7 37  1  1  0  0  0
  8  9  2  0  0  0  0
  8 19  1  0  0  0  0
  8 27  1  0  0  0  0
 10 11  1  0  0  0  0
 10 17  2  0  0  0  0
 10 26  1  0  0  0  0
 11 12  2  0  0  0  0
 11 16  1  0  0  0  0
 12 13  1  0  0  0  0
 12 38  1  0  0  0  0
 13 14  2  0  0  0  0
 13 39  1  0  0  0  0
 14 15  1  0  0  0  0
 14 40  1  0  0  0  0
 15 16  2  0  0  0  0
 15 41  1  0  0  0  0
 16 42  1  0  0  0  0
 17 19  1  0  0  0  0
 18 43  1  0  0  0  0
 19 32  2  0  0  0  0
 20 21  2  0  0  0  0
 20 25  1  0  0  0  0
 21 22  1  0  0  0  0
 21 44  1  0  0  0  0
 22 23  2  0  0  0  0
 22 45  1  0  0  0  0
 23 24  1  0  0  0  0
 23 28  1  0  0  0  0
 24 25  2  0  0  0  0
 24 46  1  0  0  0  0
 25 47  1  0  0  0  0
 26 48  1  0  0  0  0
 26 49  1  0  0  0  0
 28 33  1  0  0  0  0
 28 34  1  0  0  0  0
 29 50  1  0  0  0  0
 33 51  1  0  0  0  0
 34 52  1  0  0  0  0
M  CHG  1  30  -1
M  END
>  <COMPND>
    title: molecule 1

$$$$
6TZ6_ligand0.pdb
 OpenBabel06042612053D

126129  0  0  1  0  0  0  0  0999 V2000
    7.5760   18.6820  -37.6010 C   0  0  0  0  0  0  0  0  0  0  0  0
    6.4820   18.2060  -36.6860 C   0  0  2  0  0  0  0  0  0  0  0  0
    5.1460   18.8160  -37.0960 C   0  0  0  0  0  0  0  0  0  0  0  0
    5.0450   20.2610  -36.6380 C   0  0  0  0  0  0  0  0  0  0  0  0
    5.2670   20.4010  -35.1370 C   0  0  0  0  0  0  0  0  0  0  0  0
    6.6380   19.8720  -34.7520 C   0  0  0  0  0  0  0  0  0  0  0  0
    7.1330   17.4830  -34.4410 C   0  0  0  0  0  0  0  0  0  0  0  0
    7.3760   17.6910  -33.0710 C   0  0  0  0  0  0  0  0  0  0  0  0
    8.7650   17.9840  -32.5130 C   0  0  1  0  0  0  0  0  0  0  0  0
    9.8250   17.2090  -33.2940 C   0  0  1  0  0  0  0  0  0  0  0  0
   11.2270   17.7890  -33.1270 C   0  0  0  0  0  0  0  0  0  0  0  0
   11.2480   19.3120  -33.2020 C   0  0  1  0  0  0  0  0  0  0  0  0
   10.2510   19.8230  -32.1790 C   0  0  1  0  0  0  0  0  0  0  0  0
   10.1470   21.3370  -32.0900 C   0  0  2  0  0  0  0  0  0  0  0  0
   10.0150   21.9720  -33.4800 C   0  0  0  0  0  0  0  0  0  0  0  0
    9.6070   23.4570  -33.4960 C   0  0  2  0  0  0  0  0  0  0  0  0
   10.8340   24.3450  -33.2610 C   0  0  0  0  0  0  0  0  0  0  0  0
   11.7260   24.3630  -34.4870 C   0  0  0  0  0  0  0  0  0  0  0  0
   12.8100   23.3920  -34.6450 C   0  0  0  0  0  0  0  0  0  0  0  0
   13.6380   23.3350  -35.8820 C   0  0  2  0  0  0  0  0  0  0  0  0
   13.0660   22.3470  -36.8510 C   0  0  0  0  0  0  0  0  0  0  0  0
   11.9590   22.7410  -37.8040 C   0  0  0  0  0  0  0  0  0  0  0  0
   11.3360   21.5170  -38.4700 C   0  0  1  0  0  0  0  0  0  0  0  0
   10.1610   21.0210  -37.6360 C   0  0  2  0  0  0  0  0  0  0  0  0
    9.5770   19.6760  -38.0960 C   0  0  1  0  0  0  0  0  0  0  0  0
   10.7060   18.6950  -38.2090 C   0  0  0  0  0  0  0  0  0  0  0  0
   11.0450   18.1430  -39.5130 C   0  0  0  0  0  0  0  0  0  0  0  0
   12.1710   17.1730  -39.6480 C   0  0  1  0  0  0  0  0  0  0  0  0
   11.8540   16.2570  -40.8250 C   0  0  0  0  0  0  0  0  0  0  0  0
   13.0180   15.3200  -41.1400 C   0  0  2  0  0  0  0  0  0  0  0  0
   14.3080   16.0730  -41.3740 C   0  0  1  0  0  0  0  0  0  0  0  0
   14.6300   16.9490  -40.1670 C   0  0  0  0  0  0  0  0  0  0  0  0
   13.4780   17.9220  -39.9110 C   0  0  0  0  0  0  0  0  0  0  0  0
    9.7950   15.7290  -32.9180 C   0  0  0  0  0  0  0  0  0  0  0  0
    8.4940   23.7890  -32.5050 C   0  0  0  0  0  0  0  0  0  0  0  0
   11.4900   25.3920  -35.5430 C   0  0  0  0  0  0  0  0  0  0  0  0
   15.0040   22.7960  -35.4850 C   0  0  0  0  0  0  0  0  0  0  0  0
   15.9400   23.9120  -35.0800 C   0  0  0  0  0  0  0  0  0  0  0  0
   15.7480   24.6830  -33.8430 C   0  0  0  0  0  0  0  0  0  0  0  0
    9.0930   22.1090  -37.5700 C   0  0  0  0  0  0  0  0  0  0  0  0
   11.5220   18.3140  -37.0140 C   0  0  0  0  0  0  0  0  0  0  0  0
   13.4540   19.3730  -33.9620 C   0  0  0  0  0  0  0  0  0  0  0  0
   10.8110   22.0970  -30.0070 C   0  0  0  0  0  0  0  0  0  0  0  0
   11.7780   13.5890  -42.0200 C   0  0  0  0  0  0  0  0  0  0  0  0
    6.7740   18.4940  -35.2630 N   0  0  0  0  0  0  0  0  0  0  0  0
    8.5950   19.2650  -37.1520 O   0  0  0  0  0  0  0  0  0  0  0  0
    7.4540   18.4310  -38.9750 O   0  0  0  0  0  0  0  0  0  0  0  0
    7.2390   16.1860  -34.9880 O   0  0  0  0  0  0  0  0  0  0  0  0
    6.3220   17.6600  -32.1410 O   0  0  0  0  0  0  0  0  0  0  0  0
    8.9860   19.3760  -32.6000 O   0  0  0  0  0  0  0  0  0  0  0  0
    8.7690   17.6080  -31.1140 O   0  0  0  0  0  0  0  0  0  0  0  0
   12.5590   19.7600  -32.9350 O   0  0  0  0  0  0  0  0  0  0  0  0
   11.2340   21.8130  -31.3260 O   0  0  0  0  0  0  0  0  0  0  0  0
   13.5970   21.0440  -36.8670 O   0  0  0  0  0  0  0  0  0  0  0  0
   10.8880   21.8400  -39.7700 O   0  0  0  0  0  0  0  0  0  0  0  0
   12.7400   14.5810  -42.3010 O   0  0  0  0  0  0  0  0  0  0  0  0
   15.3000   15.1030  -41.5800 O   0  0  0  0  0  0  0  0  0  0  0  0
    6.3610   17.1440  -36.8940 H   0  0  0  0  0  0  0  0  0  0  0  0
    4.3650   18.2360  -36.6120 H   0  0  0  0  0  0  0  0  0  0  0  0
    4.9600   18.7320  -38.1660 H   0  0  0  0  0  0  0  0  0  0  0  0
    4.0740   20.6670  -36.9060 H   0  0  0  0  0  0  0  0  0  0  0  0
    5.7710   20.8750  -37.1710 H   0  0  0  0  0  0  0  0  0  0  0  0
    4.4940   19.8590  -34.5910 H   0  0  0  0  0  0  0  0  0  0  0  0
    5.1780   21.4470  -34.8410 H   0  0  0  0  0  0  0  0  0  0  0  0
    6.7600   20.0220  -33.6850 H   0  0  0  0  0  0  0  0  0  0  0  0
    7.4050   20.4940  -35.2110 H   0  0  0  0  0  0  0  0  0  0  0  0
    9.6570   17.3080  -34.3660 H   0  0  0  0  0  0  0  0  0  0  0  0
   11.8590   17.3320  -33.8880 H   0  0  0  0  0  0  0  0  0  0  0  0
   11.6340   17.4780  -32.1630 H   0  0  0  0  0  0  0  0  0  0  0  0
   10.9330   19.6250  -34.1940 H   0  0  0  0  0  0  0  0  0  0  0  0
   10.4860   19.4370  -31.1860 H   0  0  0  0  0  0  0  0  0  0  0  0
    9.2050   21.5160  -31.5670 H   0  0  0  0  0  0  0  0  0  0  0  0
    9.2260   21.4420  -34.0130 H   0  0  0  0  0  0  0  0  0  0  0  0
   10.9010   21.8030  -34.0810 H   0  0  0  0  0  0  0  0  0  0  0  0
    9.2140   23.6810  -34.4890 H   0  0  0  0  0  0  0  0  0  0  0  0
   11.3580   23.9270  -32.4270 H   0  0  0  0  0  0  0  0  0  0  0  0
   10.5580   25.3680  -33.0010 H   0  0  0  0  0  0  0  0  0  0  0  0
   12.9770   22.6450  -33.8820 H   0  0  0  0  0  0  0  0  0  0  0  0
   13.7680   24.2960  -36.3740 H   0  0  0  0  0  0  0  0  0  0  0  0
   12.4230   23.3690  -38.5640 H   0  0  0  0  0  0  0  0  0  0  0  0
   11.2320   23.3720  -37.3020 H   0  0  0  0  0  0  0  0  0  0  0  0
   12.0840   20.7470  -38.6490 H   0  0  0  0  0  0  0  0  0  0  0  0
   10.5130   20.8770  -36.6140 H   0  0  0  0  0  0  0  0  0  0  0  0
    9.1760   19.8630  -39.0930 H   0  0  0  0  0  0  0  0  0  0  0  0
   10.4930   18.4280  -40.3980 H   0  0  0  0  0  0  0  0  0  0  0  0
   12.3480   16.6020  -38.7450 H   0  0  0  0  0  0  0  0  0  0  0  0
   11.6490   16.8570  -41.7140 H   0  0  0  0  0  0  0  0  0  0  0  0
   10.9320   15.7250  -40.6080 H   0  0  0  0  0  0  0  0  0  0  0  0
   13.1710   14.6490  -40.2910 H   0  0  0  0  0  0  0  0  0  0  0  0
   14.2160   16.6800  -42.2730 H   0  0  0  0  0  0  0  0  0  0  0  0
   15.5430   17.5110  -40.3530 H   0  0  0  0  0  0  0  0  0  0  0  0
   14.8090   16.3380  -39.2810 H   0  0  0  0  0  0  0  0  0  0  0  0
   13.7320   18.5640  -39.0680 H   0  0  0  0  0  0  0  0  0  0  0  0
   13.3630   18.5860  -40.7660 H   0  0  0  0  0  0  0  0  0  0  0  0
   10.6520   15.1980  -33.3350 H   0  0  0  0  0  0  0  0  0  0  0  0
    9.7870   15.5580  -31.8510 H   0  0  0  0  0  0  0  0  0  0  0  0
    8.9080   15.2320  -33.3060 H   0  0  0  0  0  0  0  0  0  0  0  0
    8.1170   24.7950  -32.6840 H   0  0  0  0  0  0  0  0  0  0  0  0
    7.6500   23.1090  -32.6180 H   0  0  0  0  0  0  0  0  0  0  0  0
    8.8210   23.7630  -31.4700 H   0  0  0  0  0  0  0  0  0  0  0  0
   12.0650   25.3040  -36.4580 H   0  0  0  0  0  0  0  0  0  0  0  0
   10.4400   25.3710  -35.8340 H   0  0  0  0  0  0  0  0  0  0  0  0
   11.6890   26.3810  -35.1310 H   0  0  0  0  0  0  0  0  0  0  0  0
   15.5460   22.3180  -36.2880 H   0  0  0  0  0  0  0  0  0  0  0  0
   14.9570   22.0660  -34.6760 H   0  0  0  0  0  0  0  0  0  0  0  0
   16.7760   24.1310  -35.7300 H   0  0  0  0  0  0  0  0  0  0  0  0
   16.4260   25.4660  -33.5440 H   0  0  0  0  0  0  0  0  0  0  0  0
   14.9000   24.4750  -33.2320 H   0  0  0  0  0  0  0  0  0  0  0  0
    8.0970   21.7020  -37.3940 H   0  0  0  0  0  0  0  0  0  0  0  0
    9.2820   22.7840  -36.7350 H   0  0  0  0  0  0  0  0  0  0  0  0
    9.0110   22.7200  -38.4690 H   0  0  0  0  0  0  0  0  0  0  0  0
   12.5540   18.6440  -37.1100 H   0  0  0  0  0  0  0  0  0  0  0  0
   11.1000   18.7550  -36.1190 H   0  0  0  0  0  0  0  0  0  0  0  0
   11.5080   17.2370  -36.8500 H   0  0  0  0  0  0  0  0  0  0  0  0
   14.3500   19.9840  -33.8830 H   0  0  0  0  0  0  0  0  0  0  0  0
   13.7800   18.3380  -33.8640 H   0  0  0  0  0  0  0  0  0  0  0  0
   13.0420   19.5280  -34.9550 H   0  0  0  0  0  0  0  0  0  0  0  0
   11.6800   22.3740  -29.4110 H   0  0  0  0  0  0  0  0  0  0  0  0
   10.1150   22.9320  -29.9590 H   0  0  0  0  0  0  0  0  0  0  0  0
   10.3550   21.2290  -29.5280 H   0  0  0  0  0  0  0  0  0  0  0  0
   11.5950   13.0340  -42.9400 H   0  0  0  0  0  0  0  0  0  0  0  0
   12.1530   12.8620  -41.3010 H   0  0  0  0  0  0  0  0  0  0  0  0
   10.8060   13.9550  -41.6970 H   0  0  0  0  0  0  0  0  0  0  0  0
    8.1590   18.1800  -30.6660 H   0  0  0  0  0  0  0  0  0  0  0  0
   10.5390   21.0620  -40.1780 H   0  0  0  0  0  0  0  0  0  0  0  0
   16.1100   15.5490  -41.7760 H   0  0  0  0  0  0  0  0  0  0  0  0
  1  2  1  0  0  0  0
  1 46  1  0  0  0  0
  1 47  2  0  0  0  0
  2  3  1  0  0  0  0
  2 45  1  0  0  0  0
  2 58  1  6  0  0  0
  3  4  1  0  0  0  0
  3 59  1  0  0  0  0
  3 60  1  0  0  0  0
  4  5  1  0  0  0  0
  4 61  1  0  0  0  0
  4 62  1  0  0  0  0
  5  6  1  0  0  0  0
  5 63  1  0  0  0  0
  5 64  1  0  0  0  0
  6 45  1  0  0  0  0
  6 65  1  0  0  0  0
  6 66  1  0  0  0  0
  7  8  1  0  0  0  0
  7 45  1  0  0  0  0
  7 48  2  0  0  0  0
  8  9  1  0  0  0  0
  8 49  2  0  0  0  0
  9 10  1  0  0  0  0
  9 50  1  0  0  0  0
  9 51  1  1  0  0  0
 10 11  1  0  0  0  0
 10 34  1  0  0  0  0
 10 67  1  6  0  0  0
 11 12  1  0  0  0  0
 11 68  1  0  0  0  0
 11 69  1  0  0  0  0
 12 13  1  0  0  0  0
 12 52  1  0  0  0  0
 12 70  1  6  0  0  0
 13 14  1  0  0  0  0
 13 50  1  0  0  0  0
 13 71  1  1  0  0  0
 14 15  1  0  0  0  0
 14 53  1  0  0  0  0
 14 72  1  1  0  0  0
 15 16  1  0  0  0  0
 15 73  1  0  0  0  0
 15 74  1  0  0  0  0
 16 17  1  0  0  0  0
 16 35  1  0  0  0  0
 16 75  1  6  0  0  0
 17 18  1  0  0  0  0
 17 76  1  0  0  0  0
 17 77  1  0  0  0  0
 18 19  2  0  0  0  0
 18 36  1  0  0  0  0
 19 20  1  0  0  0  0
 19 78  1  0  0  0  0
 20 21  1  0  0  0  0
 20 37  1  0  0  0  0
 20 79  1  6  0  0  0
 21 22  1  0  0  0  0
 21 54  2  0  0  0  0
 22 23  1  0  0  0  0
 22 80  1  0  0  0  0
 22 81  1  0  0  0  0
 23 24  1  0  0  0  0
 23 55  1  0  0  0  0
 23 82  1  6  0  0  0
 24 25  1  0  0  0  0
 24 40  1  0  0  0  0
 24 83  1  1  0  0  0
 25 26  1  0  0  0  0
 25 46  1  0  0  0  0
 25 84  1  6  0  0  0
 26 27  2  0  0  0  0
 26 41  1  0  0  0  0
 27 28  1  0  0  0  0
 27 85  1  0  0  0  0
 28 29  1  0  0  0  0
 28 33  1  0  0  0  0
 28 86  1  1  0  0  0
 29 30  1  0  0  0  0
 29 87  1  0  0  0  0
 29 88  1  0  0  0  0
 30 31  1  0  0  0  0
 30 56  1  0  0  0  0
 30 89  1  1  0  0  0
 31 32  1  0  0  0  0
 31 57  1  0  0  0  0
 31 90  1  6  0  0  0
 32 33  1  0  0  0  0
 32 91  1  0  0  0  0
 32 92  1  0  0  0  0
 33 93  1  0  0  0  0
 33 94  1  0  0  0  0
 34 95  1  0  0  0  0
 34 96  1  0  0  0  0
 34 97  1  0  0  0  0
 35 98  1  0  0  0  0
 35 99  1  0  0  0  0
 35100  1  0  0  0  0
 36101  1  0  0  0  0
 36102  1  0  0  0  0
 36103  1  0  0  0  0
 37 38  1  0  0  0  0
 37104  1  0  0  0  0
 37105  1  0  0  0  0
 38 39  2  0  0  0  0
 38106  1  0  0  0  0
 39107  1  0  0  0  0
 39108  1  0  0  0  0
 40109  1  0  0  0  0
 40110  1  0  0  0  0
 40111  1  0  0  0  0
 41112  1  0  0  0  0
 41113  1  0  0  0  0
 41114  1  0  0  0  0
 42 52  1  0  0  0  0
 42115  1  0  0  0  0
 42116  1  0  0  0  0
 42117  1  0  0  0  0
 43 53  1  0  0  0  0
 43118  1  0  0  0  0
 43119  1  0  0  0  0
 43120  1  0  0  0  0
 44 56  1  0  0  0  0
 44121  1  0  0  0  0
 44122  1  0  0  0  0
 44123  1  0  0  0  0
 51124  1  0  0  0  0
 55125  1  0  0  0  0
 57126  1  0  0  0  0
M  END
>  <COMPND>
    title: molecule 1

$$$$
6TZ7_ligand0.pdb
 OpenBabel06042612053D

126129  0  0  1  0  0  0  0  0999 V2000
    2.2650  -11.6260  -42.5960 C   0  0  0  0  0  0  0  0  0  0  0  0
    1.4880  -12.0060  -43.8290 C   0  0  2  0  0  0  0  0  0  0  0  0
    1.5250  -10.8510  -44.8270 C   0  0  0  0  0  0  0  0  0  0  0  0
    0.6140   -9.7090  -44.3930 C   0  0  0  0  0  0  0  0  0  0  0  0
   -0.8200  -10.1920  -44.2150 C   0  0  0  0  0  0  0  0  0  0  0  0
   -0.8930  -11.3190  -43.1910 C   0  0  0  0  0  0  0  0  0  0  0  0
   -0.2770  -13.6480  -43.5860 C   0  0  0  0  0  0  0  0  0  0  0  0
   -1.5840  -14.0460  -43.3030 C   0  0  0  0  0  0  0  0  0  0  0  0
   -1.9910  -14.4300  -41.8840 C   0  0  1  0  0  0  0  0  0  0  0  0
   -0.8200  -15.1310  -41.1920 C   0  0  1  0  0  0  0  0  0  0  0  0
   -0.9810  -15.1790  -39.6780 C   0  0  0  0  0  0  0  0  0  0  0  0
   -1.4120  -13.8200  -39.1510 C   0  0  1  0  0  0  0  0  0  0  0  0
   -2.6930  -13.4090  -39.8630 C   0  0  1  0  0  0  0  0  0  0  0  0
   -3.2690  -12.0960  -39.3450 C   0  0  2  0  0  0  0  0  0  0  0  0
   -2.1690  -11.0590  -39.1370 C   0  0  0  0  0  0  0  0  0  0  0  0
   -2.7110   -9.6390  -38.9990 C   0  0  2  0  0  0  0  0  0  0  0  0
   -3.0320   -9.3460  -37.5370 C   0  0  0  0  0  0  0  0  0  0  0  0
   -1.7700   -9.0060  -36.7800 C   0  0  0  0  0  0  0  0  0  0  0  0
   -1.0430  -10.0580  -36.0550 C   0  0  0  0  0  0  0  0  0  0  0  0
    0.2590   -9.7620  -35.3760 C   0  0  2  0  0  0  0  0  0  0  0  0
    1.3860  -10.1400  -36.2890 C   0  0  0  0  0  0  0  0  0  0  0  0
    1.9740   -9.1140  -37.2280 C   0  0  0  0  0  0  0  0  0  0  0  0
    2.7640   -9.8260  -38.3200 C   0  0  1  0  0  0  0  0  0  0  0  0
    1.8350  -10.4230  -39.3720 C   0  0  2  0  0  0  0  0  0  0  0  0
    2.6140  -11.1710  -40.4490 C   0  0  1  0  0  0  0  0  0  0  0  0
    3.2940  -12.3640  -39.8400 C   0  0  0  0  0  0  0  0  0  0  0  0
    4.7580  -12.3770  -39.6910 C   0  0  0  0  0  0  0  0  0  0  0  0
    5.4590  -13.5050  -38.9940 C   0  0  1  0  0  0  0  0  0  0  0  0
    6.6150  -13.9820  -39.8680 C   0  0  0  0  0  0  0  0  0  0  0  0
    7.4990  -15.0080  -39.1650 C   0  0  2  0  0  0  0  0  0  0  0  0
    7.9860  -14.4930  -37.8170 C   0  0  1  0  0  0  0  0  0  0  0  0
    6.8050  -14.0790  -36.9500 C   0  0  0  0  0  0  0  0  0  0  0  0
    5.9900  -13.0030  -37.6560 C   0  0  0  0  0  0  0  0  0  0  0  0
   -0.6480  -16.5440  -41.7360 C   0  0  0  0  0  0  0  0  0  0  0  0
   -3.9320   -9.4110  -39.8840 C   0  0  0  0  0  0  0  0  0  0  0  0
   -1.2630   -7.5940  -36.7670 C   0  0  0  0  0  0  0  0  0  0  0  0
    0.3520  -10.5840  -34.0960 C   0  0  0  0  0  0  0  0  0  0  0  0
   -0.9000  -10.3810  -33.2740 C   0  0  0  0  0  0  0  0  0  0  0  0
   -0.8030   -9.8880  -31.8920 C   0  0  0  0  0  0  0  0  0  0  0  0
    0.9570   -9.3410  -39.9860 C   0  0  0  0  0  0  0  0  0  0  0  0
    2.4860  -13.5420  -39.3860 C   0  0  0  0  0  0  0  0  0  0  0  0
   -0.3590  -13.7770  -37.0810 C   0  0  0  0  0  0  0  0  0  0  0  0
   -5.3430  -12.5280  -38.3670 C   0  0  0  0  0  0  0  0  0  0  0  0
    8.3350  -16.3540  -40.8820 C   0  0  0  0  0  0  0  0  0  0  0  0
    0.0880  -12.3650  -43.5260 N   0  0  0  0  0  0  0  0  0  0  0  0
    1.7250  -11.5860  -41.4660 O   0  0  0  0  0  0  0  0  0  0  0  0
    3.6330  -11.3100  -42.7100 O   0  0  0  0  0  0  0  0  0  0  0  0
    0.6800  -14.6090  -43.9690 O   0  0  0  0  0  0  0  0  0  0  0  0
   -2.5360  -14.0990  -44.3420 O   0  0  0  0  0  0  0  0  0  0  0  0
   -2.3730  -13.2430  -41.2220 O   0  0  0  0  0  0  0  0  0  0  0  0
   -3.1240  -15.3350  -41.9220 O   0  0  0  0  0  0  0  0  0  0  0  0
   -1.5940  -13.8890  -37.7560 O   0  0  0  0  0  0  0  0  0  0  0  0
   -3.9660  -12.3210  -38.1390 O   0  0  0  0  0  0  0  0  0  0  0  0
    1.8920  -11.4550  -36.2750 O   0  0  0  0  0  0  0  0  0  0  0  0
    3.6500   -8.9160  -38.9310 O   0  0  0  0  0  0  0  0  0  0  0  0
    8.6100  -15.3050  -39.9810 O   0  0  0  0  0  0  0  0  0  0  0  0
    8.7190  -15.5050  -37.1650 O   0  0  0  0  0  0  0  0  0  0  0  0
    2.0570  -12.7970  -44.3160 H   0  0  0  0  0  0  0  0  0  0  0  0
    1.1870  -11.2260  -45.7920 H   0  0  0  0  0  0  0  0  0  0  0  0
    2.5400  -10.4870  -44.9910 H   0  0  0  0  0  0  0  0  0  0  0  0
    0.6440   -8.9110  -45.1310 H   0  0  0  0  0  0  0  0  0  0  0  0
    0.9740   -9.2650  -43.4640 H   0  0  0  0  0  0  0  0  0  0  0  0
   -1.2140  -10.5360  -45.1730 H   0  0  0  0  0  0  0  0  0  0  0  0
   -1.4520   -9.3620  -43.8990 H   0  0  0  0  0  0  0  0  0  0  0  0
   -1.9410  -11.6070  -43.1510 H   0  0  0  0  0  0  0  0  0  0  0  0
   -0.6760  -10.9390  -42.1990 H   0  0  0  0  0  0  0  0  0  0  0  0
    0.0980  -14.5640  -41.3100 H   0  0  0  0  0  0  0  0  0  0  0  0
   -0.0450  -15.5090  -39.2290 H   0  0  0  0  0  0  0  0  0  0  0  0
   -1.7310  -15.9220  -39.4010 H   0  0  0  0  0  0  0  0  0  0  0  0
   -0.6350  -13.1010  -39.4080 H   0  0  0  0  0  0  0  0  0  0  0  0
   -3.4550  -14.1800  -39.7430 H   0  0  0  0  0  0  0  0  0  0  0  0
   -3.9550  -11.8090  -40.1400 H   0  0  0  0  0  0  0  0  0  0  0  0
   -1.5380  -11.0590  -40.0250 H   0  0  0  0  0  0  0  0  0  0  0  0
   -1.5100  -11.3160  -38.3140 H   0  0  0  0  0  0  0  0  0  0  0  0
   -1.9500   -8.9390  -39.3360 H   0  0  0  0  0  0  0  0  0  0  0  0
   -3.4740  -10.2290  -37.1150 H   0  0  0  0  0  0  0  0  0  0  0  0
   -3.7480   -8.5310  -37.4280 H   0  0  0  0  0  0  0  0  0  0  0  0
   -1.3940  -11.0810  -36.0590 H   0  0  0  0  0  0  0  0  0  0  0  0
    0.3800   -8.7240  -35.0910 H   0  0  0  0  0  0  0  0  0  0  0  0
    2.6500   -8.5060  -36.6320 H   0  0  0  0  0  0  0  0  0  0  0  0
    1.2230   -8.4200  -37.5890 H   0  0  0  0  0  0  0  0  0  0  0  0
    3.4220  -10.5810  -37.8900 H   0  0  0  0  0  0  0  0  0  0  0  0
    1.1590  -11.1350  -38.8980 H   0  0  0  0  0  0  0  0  0  0  0  0
    3.3610  -10.4420  -40.7600 H   0  0  0  0  0  0  0  0  0  0  0  0
    5.3570  -11.5500  -40.0460 H   0  0  0  0  0  0  0  0  0  0  0  0
    4.8090  -14.3530  -38.7950 H   0  0  0  0  0  0  0  0  0  0  0  0
    7.2340  -13.1300  -40.1540 H   0  0  0  0  0  0  0  0  0  0  0  0
    6.2200  -14.3890  -40.7980 H   0  0  0  0  0  0  0  0  0  0  0  0
    6.9120  -15.9110  -38.9790 H   0  0  0  0  0  0  0  0  0  0  0  0
    8.6500  -13.6410  -37.9710 H   0  0  0  0  0  0  0  0  0  0  0  0
    7.1510  -13.7060  -35.9890 H   0  0  0  0  0  0  0  0  0  0  0  0
    6.1720  -14.9410  -36.7360 H   0  0  0  0  0  0  0  0  0  0  0  0
    5.1580  -12.7030  -37.0170 H   0  0  0  0  0  0  0  0  0  0  0  0
    6.6050  -12.1120  -37.7970 H   0  0  0  0  0  0  0  0  0  0  0  0
    0.2700  -16.9860  -41.3470 H   0  0  0  0  0  0  0  0  0  0  0  0
   -1.4590  -17.2070  -41.4360 H   0  0  0  0  0  0  0  0  0  0  0  0
   -0.5790  -16.5880  -42.8220 H   0  0  0  0  0  0  0  0  0  0  0  0
   -4.1770   -8.3490  -39.9010 H   0  0  0  0  0  0  0  0  0  0  0  0
   -3.7190   -9.6830  -40.9140 H   0  0  0  0  0  0  0  0  0  0  0  0
   -4.8330   -9.9100  -39.5400 H   0  0  0  0  0  0  0  0  0  0  0  0
   -0.6060   -7.3110  -35.9520 H   0  0  0  0  0  0  0  0  0  0  0  0
   -0.7690   -7.3610  -37.7090 H   0  0  0  0  0  0  0  0  0  0  0  0
   -2.1210   -6.9280  -36.6880 H   0  0  0  0  0  0  0  0  0  0  0  0
    1.2280  -10.2980  -33.5150 H   0  0  0  0  0  0  0  0  0  0  0  0
    0.4230  -11.6550  -34.2900 H   0  0  0  0  0  0  0  0  0  0  0  0
   -1.8670  -10.6090  -33.6970 H   0  0  0  0  0  0  0  0  0  0  0  0
   -1.6790   -9.7260  -31.2860 H   0  0  0  0  0  0  0  0  0  0  0  0
    0.1660   -9.6790  -31.4700 H   0  0  0  0  0  0  0  0  0  0  0  0
    0.3280   -9.7030  -40.7910 H   0  0  0  0  0  0  0  0  0  0  0  0
    0.2670   -8.8990  -39.2760 H   0  0  0  0  0  0  0  0  0  0  0  0
    1.5730   -8.5470  -40.3980 H   0  0  0  0  0  0  0  0  0  0  0  0
    2.8810  -14.4960  -39.7010 H   0  0  0  0  0  0  0  0  0  0  0  0
    2.4090  -13.5430  -38.2990 H   0  0  0  0  0  0  0  0  0  0  0  0
    1.4810  -13.4880  -39.7890 H   0  0  0  0  0  0  0  0  0  0  0  0
   -0.5420  -13.6440  -36.0200 H   0  0  0  0  0  0  0  0  0  0  0  0
    0.2680  -14.6560  -37.2070 H   0  0  0  0  0  0  0  0  0  0  0  0
    0.1950  -12.9010  -37.4090 H   0  0  0  0  0  0  0  0  0  0  0  0
   -5.8240  -12.7730  -37.4220 H   0  0  0  0  0  0  0  0  0  0  0  0
   -5.8370  -11.6370  -38.7450 H   0  0  0  0  0  0  0  0  0  0  0  0
   -5.5290  -13.3530  -39.0560 H   0  0  0  0  0  0  0  0  0  0  0  0
    9.1180  -16.3810  -41.6400 H   0  0  0  0  0  0  0  0  0  0  0  0
    8.3680  -17.3050  -40.3720 H   0  0  0  0  0  0  0  0  0  0  0  0
    7.3850  -16.2430  -41.4040 H   0  0  0  0  0  0  0  0  0  0  0  0
   -3.8530  -14.8460  -42.2830 H   0  0  0  0  0  0  0  0  0  0  0  0
    4.3460   -9.3930  -39.3620 H   0  0  0  0  0  0  0  0  0  0  0  0
    9.4030  -15.0890  -36.6550 H   0  0  0  0  0  0  0  0  0  0  0  0
  1  2  1  0  0  0  0
  1 46  1  0  0  0  0
  1 47  2  0  0  0  0
  2  3  1  0  0  0  0
  2 45  1  0  0  0  0
  2 58  1  6  0  0  0
  3  4  1  0  0  0  0
  3 59  1  0  0  0  0
  3 60  1  0  0  0  0
  4  5  1  0  0  0  0
  4 61  1  0  0  0  0
  4 62  1  0  0  0  0
  5  6  1  0  0  0  0
  5 63  1  0  0  0  0
  5 64  1  0  0  0  0
  6 45  1  0  0  0  0
  6 65  1  0  0  0  0
  6 66  1  0  0  0  0
  7  8  1  0  0  0  0
  7 45  1  0  0  0  0
  7 48  2  0  0  0  0
  8  9  1  0  0  0  0
  8 49  2  0  0  0  0
  9 10  1  0  0  0  0
  9 50  1  0  0  0  0
  9 51  1  6  0  0  0
 10 11  1  0  0  0  0
 10 34  1  0  0  0  0
 10 67  1  6  0  0  0
 11 12  1  0  0  0  0
 11 68  1  0  0  0  0
 11 69  1  0  0  0  0
 12 13  1  0  0  0  0
 12 52  1  0  0  0  0
 12 70  1  6  0  0  0
 13 14  1  0  0  0  0
 13 50  1  0  0  0  0
 13 71  1  1  0  0  0
 14 15  1  0  0  0  0
 14 53  1  0  0  0  0
 14 72  1  6  0  0  0
 15 16  1  0  0  0  0
 15 73  1  0  0  0  0
 15 74  1  0  0  0  0
 16 17  1  0  0  0  0
 16 35  1  0  0  0  0
 16 75  1  6  0  0  0
 17 18  1  0  0  0  0
 17 76  1  0  0  0  0
 17 77  1  0  0  0  0
 18 19  2  0  0  0  0
 18 36  1  0  0  0  0
 19 20  1  0  0  0  0
 19 78  1  0  0  0  0
 20 21  1  0  0  0  0
 20 37  1  0  0  0  0
 20 79  1  1  0  0  0
 21 22  1  0  0  0  0
 21 54  2  0  0  0  0
 22 23  1  0  0  0  0
 22 80  1  0  0  0  0
 22 81  1  0  0  0  0
 23 24  1  0  0  0  0
 23 55  1  0  0  0  0
 23 82  1  1  0  0  0
 24 25  1  0  0  0  0
 24 40  1  0  0  0  0
 24 83  1  1  0  0  0
 25 26  1  0  0  0  0
 25 46  1  0  0  0  0
 25 84  1  6  0  0  0
 26 27  2  0  0  0  0
 26 41  1  0  0  0  0
 27 28  1  0  0  0  0
 27 85  1  0  0  0  0
 28 29  1  0  0  0  0
 28 33  1  0  0  0  0
 28 86  1  1  0  0  0
 29 30  1  0  0  0  0
 29 87  1  0  0  0  0
 29 88  1  0  0  0  0
 30 31  1  0  0  0  0
 30 56  1  0  0  0  0
 30 89  1  1  0  0  0
 31 32  1  0  0  0  0
 31 57  1  0  0  0  0
 31 90  1  6  0  0  0
 32 33  1  0  0  0  0
 32 91  1  0  0  0  0
 32 92  1  0  0  0  0
 33 93  1  0  0  0  0
 33 94  1  0  0  0  0
 34 95  1  0  0  0  0
 34 96  1  0  0  0  0
 34 97  1  0  0  0  0
 35 98  1  0  0  0  0
 35 99  1  0  0  0  0
 35100  1  0  0  0  0
 36101  1  0  0  0  0
 36102  1  0  0  0  0
 36103  1  0  0  0  0
 37 38  1  0  0  0  0
 37104  1  0  0  0  0
 37105  1  0  0  0  0
 38 39  2  0  0  0  0
 38106  1  0  0  0  0
 39107  1  0  0  0  0
 39108  1  0  0  0  0
 40109  1  0  0  0  0
 40110  1  0  0  0  0
 40111  1  0  0  0  0
 41112  1  0  0  0  0
 41113  1  0  0  0  0
 41114  1  0  0  0  0
 42 52  1  0  0  0  0
 42115  1  0  0  0  0
 42116  1  0  0  0  0
 42117  1  0  0  0  0
 43 53  1  0  0  0  0
 43118  1  0  0  0  0
 43119  1  0  0  0  0
 43120  1  0  0  0  0
 44 56  1  0  0  0  0
 44121  1  0  0  0  0
 44122  1  0  0  0  0
 44123  1  0  0  0  0
 51124  1  0  0  0  0
 55125  1  0  0  0  0
 57126  1  0  0  0  0
M  END
>  <COMPND>
    title: molecule 1

$$$$
6VCB_ligand0.pdb
 OpenBabel06042612053D

 61 65  0  0  1  0  0  0  0  0999 V2000
  151.8540  143.9850  123.8190 C   0  0  0  0  0  0  0  0  0  0  0  0
  150.3740  145.5580  127.8260 C   0  0  0  0  0  0  0  0  0  0  0  0
  149.9080  146.3370  128.9230 C   0  0  0  0  0  0  0  0  0  0  0  0
  149.5780  147.6770  128.7320 C   0  0  0  0  0  0  0  0  0  0  0  0
  149.7060  148.2550  127.4630 C   0  0  0  0  0  0  0  0  0  0  0  0
  149.3760  149.5930  127.2720 C   0  0  0  0  0  0  0  0  0  0  0  0
  148.0900  149.9370  126.8900 C   0  0  0  0  0  0  0  0  0  0  0  0
  150.3310  150.5850  127.4630 C   0  0  0  0  0  0  0  0  0  0  0  0
  151.7510  150.2110  127.8850 C   0  0  1  0  0  0  0  0  0  0  0  0
  152.7250  151.2350  127.3040 C   0  0  0  0  0  0  0  0  0  0  0  0
  154.1100  151.0260  127.7960 C   0  0  0  0  0  0  0  0  0  0  0  0
  154.1720  150.9750  129.2770 C   0  0  0  0  0  0  0  0  0  0  0  0
  153.1960  149.9540  129.8570 C   0  0  0  0  0  0  0  0  0  0  0  0
  155.8110  148.7910  125.8950 C   0  0  0  0  0  0  0  0  0  0  0  0
  154.3090  147.5150  124.6250 C   0  0  0  0  0  0  0  0  0  0  0  0
  153.9950  148.5300  123.7350 C   0  0  0  0  0  0  0  0  0  0  0  0
  152.7940  148.4970  123.0420 C   0  0  0  0  0  0  0  0  0  0  0  0
  151.9070  147.4500  123.2390 C   0  0  0  0  0  0  0  0  0  0  0  0
  152.2210  146.4350  124.1290 C   0  0  0  0  0  0  0  0  0  0  0  0
  151.2410  145.2800  124.3460 C   0  0  2  0  0  0  0  0  0  0  0  0
  151.1040  144.0330  126.4790 C   0  0  0  0  0  0  0  0  0  0  0  0
  147.7550  151.2680  126.6980 C   0  0  0  0  0  0  0  0  0  0  0  0
  148.7080  152.2570  126.8880 C   0  0  0  0  0  0  0  0  0  0  0  0
  149.9950  151.9140  127.2710 C   0  0  0  0  0  0  0  0  0  0  0  0
  150.1620  147.4910  126.3900 C   0  0  0  0  0  0  0  0  0  0  0  0
  150.4980  146.1230  126.5870 C   0  0  0  0  0  0  0  0  0  0  0  0
  153.4240  146.4670  124.8230 C   0  0  0  0  0  0  0  0  0  0  0  0
  150.9590  145.1400  125.7630 N   0  0  0  0  0  0  0  0  0  0  0  0
  150.7560  144.2540  127.7400 N   0  0  0  0  0  0  0  0  0  0  0  0
  151.8140  150.1600  129.3630 N   0  3  0  0  0  0  0  0  0  0  0  0
  155.5220  147.5490  125.3240 O   0  0  0  0  0  0  0  0  0  0  0  0
  150.3620  147.4090  122.3470 Cl  0  0  0  0  0  0  0  0  0  0  0  0
  153.8300  145.1610  125.9700 Cl  0  0  0  0  0  0  0  0  0  0  0  0
  151.1320  143.1680  123.8710 H   0  0  0  0  0  0  0  0  0  0  0  0
  152.0910  144.0890  122.7650 H   0  0  0  0  0  0  0  0  0  0  0  0
  152.7640  143.6330  124.2930 H   0  0  0  0  0  0  0  0  0  0  0  0
  149.7590  145.8720  129.8850 H   0  0  0  0  0  0  0  0  0  0  0  0
  149.1990  148.2590  129.5590 H   0  0  0  0  0  0  0  0  0  0  0  0
  147.3410  149.1740  126.7400 H   0  0  0  0  0  0  0  0  0  0  0  0
  152.0400  149.2360  127.4910 H   0  0  0  0  0  0  0  0  0  0  0  0
  152.5280  152.2570  127.6100 H   0  0  0  0  0  0  0  0  0  0  0  0
  152.7030  151.2120  126.2130 H   0  0  0  0  0  0  0  0  0  0  0  0
  154.8130  151.7460  127.3760 H   0  0  0  0  0  0  0  0  0  0  0  0
  154.3840  150.0420  127.4770 H   0  0  0  0  0  0  0  0  0  0  0  0
  153.9490  151.9630  129.6830 H   0  0  0  0  0  0  0  0  0  0  0  0
  155.1870  150.7380  129.5990 H   0  0  0  0  0  0  0  0  0  0  0  0
  153.1980  150.0050  130.9460 H   0  0  0  0  0  0  0  0  0  0  0  0
  153.5120  148.9440  129.5900 H   0  0  0  0  0  0  0  0  0  0  0  0
  156.8310  149.0560  125.6180 H   0  0  0  0  0  0  0  0  0  0  0  0
  155.1900  149.6330  125.5990 H   0  0  0  0  0  0  0  0  0  0  0  0
  155.8110  148.7090  126.9640 H   0  0  0  0  0  0  0  0  0  0  0  0
  154.6820  149.3390  123.5320 H   0  0  0  0  0  0  0  0  0  0  0  0
  152.5560  149.2840  122.3410 H   0  0  0  0  0  0  0  0  0  0  0  0
  150.2780  145.4210  123.8620 H   0  0  0  0  0  0  0  0  0  0  0  0
  151.4460  143.0690  126.1320 H   0  0  0  0  0  0  0  0  0  0  0  0
  146.7560  151.5460  126.4050 H   0  0  0  0  0  0  0  0  0  0  0  0
  148.4440  153.2960  126.7510 H   0  0  0  0  0  0  0  0  0  0  0  0
  150.6500  152.7500  127.4320 H   0  0  0  0  0  0  0  0  0  0  0  0
  150.2450  147.9380  125.4110 H   0  0  0  0  0  0  0  0  0  0  0  0
  151.2130  149.4180  129.6880 H   0  0  0  0  0  0  0  0  0  0  0  0
  151.4730  151.0420  129.7190 H   0  0  0  0  0  0  0  0  0  0  0  0
  1 20  1  0  0  0  0
  1 34  1  0  0  0  0
  1 35  1  0  0  0  0
  1 36  1  0  0  0  0
  2  3  2  0  0  0  0
  2 26  1  0  0  0  0
  2 29  1  0  0  0  0
  3  4  1  0  0  0  0
  3 37  1  0  0  0  0
  4  5  2  0  0  0  0
  4 38  1  0  0  0  0
  5  6  1  0  0  0  0
  5 25  1  0  0  0  0
  6  7  2  0  0  0  0
  6  8  1  0  0  0  0
  7 22  1  0  0  0  0
  7 39  1  0  0  0  0
  8  9  1  0  0  0  0
  8 24  2  0  0  0  0
  9 10  1  0  0  0  0
  9 30  1  0  0  0  0
  9 40  1  6  0  0  0
 10 11  1  0  0  0  0
 10 41  1  0  0  0  0
 10 42  1  0  0  0  0
 11 12  1  0  0  0  0
 11 43  1  0  0  0  0
 11 44  1  0  0  0  0
 12 13  1  0  0  0  0
 12 45  1  0  0  0  0
 12 46  1  0  0  0  0
 13 30  1  0  0  0  0
 13 47  1  0  0  0  0
 13 48  1  0  0  0  0
 14 31  1  0  0  0  0
 14 49  1  0  0  0  0
 14 50  1  0  0  0  0
 14 51  1  0  0  0  0
 15 16  2  0  0  0  0
 15 27  1  0  0  0  0
 15 31  1  0  0  0  0
 16 17  1  0  0  0  0
 16 52  1  0  0  0  0
 17 18  2  0  0  0  0
 17 53  1  0  0  0  0
 18 19  1  0  0  0  0
 18 32  1  0  0  0  0
 19 20  1  0  0  0  0
 19 27  2  0  0  0  0
 20 28  1  0  0  0  0
 20 54  1  6  0  0  0
 21 28  1  0  0  0  0
 21 29  2  0  0  0  0
 21 55  1  0  0  0  0
 22 23  2  0  0  0  0
 22 56  1  0  0  0  0
 23 24  1  0  0  0  0
 23 57  1  0  0  0  0
 24 58  1  0  0  0  0
 25 26  2  0  0  0  0
 25 59  1  0  0  0  0
 26 28  1  0  0  0  0
 27 33  1  0  0  0  0
 30 60  1  0  0  0  0
 30 61  1  0  0  0  0
M  CHG  1  30   1
M  END
>  <COMPND>
    title: molecule 1

$$$$
6Y4K_ligand0.pdb
 OpenBabel06042612053D

104107  0  0  1  0  0  0  0  0999 V2000
   87.3000  -60.3260   -5.4070 C   0  0  0  0  0  0  0  0  0  0  0  0
   86.8280  -61.1730   -6.5900 C   0  0  0  0  0  0  0  0  0  0  0  0
   86.5750  -60.5270   -7.9500 C   0  0  2  0  0  0  0  0  0  0  0  0
   85.3160  -59.6840   -7.8830 C   0  0  0  0  0  0  0  0  0  0  0  0
   86.4000  -61.6260   -9.0180 C   0  0  0  0  0  0  0  0  0  0  0  0
   87.5510  -61.6530   -9.8720 O   0  0  0  0  0  0  0  0  0  0  0  0
   87.2460  -61.9080  -11.2490 C   0  0  0  0  0  0  0  0  0  0  0  0
   86.2520  -62.4690  -11.5370 O   0  0  0  0  0  0  0  0  0  0  0  0
   88.2250  -61.4460  -12.3590 C   0  0  0  0  0  0  0  0  0  0  0  0
   86.0450  -62.2540   -6.1660 C   0  0  0  0  0  0  0  0  0  0  0  0
   86.3770  -62.3910   -4.5790 C   0  0  2  0  0  0  0  0  0  0  0  0
   85.3280  -62.6170   -3.9310 O   0  0  0  0  0  0  0  0  0  0  0  0
   87.0180  -60.9520   -4.1730 C   0  0  1  0  0  0  0  0  0  0  0  0
   88.3450  -61.1890   -3.3690 C   0  0  0  0  0  0  0  0  0  0  0  0
   86.0270  -60.1500   -3.3070 C   0  0  0  0  0  0  0  0  0  0  0  0
   86.1870  -58.6160   -3.1550 C   0  0  0  0  0  0  0  0  0  0  0  0
   85.1590  -57.7660   -2.1320 C   0  0  1  0  0  0  0  0  0  0  0  0
   85.6240  -57.8990   -0.6980 C   0  0  0  0  0  0  0  0  0  0  0  0
   84.7310  -58.7290    0.0090 O   0  0  0  0  0  0  0  0  0  0  0  0
   84.9960  -58.8090    1.3880 C   0  0  0  0  0  0  0  0  0  0  0  0
   85.2080  -56.4460   -2.5230 C   0  0  0  0  0  0  0  0  0  0  0  0
   85.5310  -56.5030   -4.0920 C   0  0  0  0  0  0  0  0  0  0  0  0
   86.4270  -57.8330   -4.2680 C   0  0  1  0  0  0  0  0  0  0  0  0
   87.9430  -57.4200   -4.4260 C   0  0  1  0  0  0  0  0  0  0  0  0
   88.6930  -57.7890   -3.1700 C   0  0  0  0  0  0  0  0  0  0  0  0
   88.6210  -58.1000   -5.6150 C   0  0  1  0  0  0  0  0  0  0  0  0
   89.9320  -57.5740   -5.7510 O   0  0  0  0  0  0  0  0  0  0  0  0
   88.7160  -59.6190   -5.4570 C   0  0  2  0  0  0  0  0  0  0  0  0
   89.4460  -60.1430   -6.5470 O   0  0  0  0  0  0  0  0  0  0  0  0
   90.7530  -60.4140   -6.1430 C   0  0  1  0  0  0  0  0  0  0  0  0
   90.7280  -61.4200   -5.0540 O   0  0  0  0  0  0  0  0  0  0  0  0
   90.2660  -62.7390   -5.5220 C   0  0  1  0  0  0  0  0  0  0  0  0
   91.0450  -63.2270   -6.7430 C   0  0  1  0  0  0  0  0  0  0  0  0
   90.4210  -64.4220   -7.2440 O   0  0  0  0  0  0  0  0  0  0  0  0
   91.0820  -62.2150   -7.8310 C   0  0  2  0  0  0  0  0  0  0  0  0
   91.9900  -62.6850   -8.8840 O   0  0  0  0  0  0  0  0  0  0  0  0
   91.3490  -63.3960   -9.9140 C   0  0  0  0  0  0  0  0  0  0  0  0
   90.2760  -63.0740  -10.2730 O   0  0  0  0  0  0  0  0  0  0  0  0
   92.0500  -64.5900  -10.5700 C   0  0  0  0  0  0  0  0  0  0  0  0
   91.5540  -60.9000   -7.3500 C   0  0  1  0  0  0  0  0  0  0  0  0
   91.4190  -59.9400   -8.4150 O   0  0  0  0  0  0  0  0  0  0  0  0
   90.4330  -63.7450   -4.3940 C   0  0  0  0  0  0  0  0  0  0  0  0
   90.5100  -65.0740   -4.9350 O   0  0  0  0  0  0  0  0  0  0  0  0
   91.4940  -65.9310   -4.2660 C   0  0  0  0  0  0  0  0  0  0  0  0
   91.3370  -67.3830   -4.7620 C   0  0  0  0  0  0  0  0  0  0  0  0
   91.2660  -65.8840   -2.7470 C   0  0  0  0  0  0  0  0  0  0  0  0
   92.9220  -65.4280   -4.5880 C   0  0  0  0  0  0  0  0  0  0  0  0
   93.5800  -64.6940   -3.7010 C   0  0  0  0  0  0  0  0  0  0  0  0
   87.4130  -59.8750   -8.2030 H   0  0  0  0  0  0  0  0  0  0  0  0
   85.1220  -59.2090   -8.8450 H   0  0  0  0  0  0  0  0  0  0  0  0
   84.4320  -60.2680   -7.6270 H   0  0  0  0  0  0  0  0  0  0  0  0
   85.4060  -58.8800   -7.1570 H   0  0  0  0  0  0  0  0  0  0  0  0
   85.5010  -61.3880   -9.5880 H   0  0  0  0  0  0  0  0  0  0  0  0
   86.2380  -62.6270   -8.6280 H   0  0  0  0  0  0  0  0  0  0  0  0
   87.6720  -61.0820  -13.2250 H   0  0  0  0  0  0  0  0  0  0  0  0
   88.8640  -60.6430  -11.9940 H   0  0  0  0  0  0  0  0  0  0  0  0
   88.8580  -62.2760  -12.6720 H   0  0  0  0  0  0  0  0  0  0  0  0
   86.2950  -63.1860   -6.6710 H   0  0  0  0  0  0  0  0  0  0  0  0
   84.9870  -62.0420   -6.3260 H   0  0  0  0  0  0  0  0  0  0  0  0
   87.1000  -63.1930   -4.4360 H   0  0  0  0  0  0  0  0  0  0  0  0
   85.0110  -63.4780   -4.1570 H   0  0  0  0  0  0  0  0  0  0  0  0
   88.0190  -61.7330   -2.4820 H   0  0  0  0  0  0  0  0  0  0  0  0
   88.9550  -61.9000   -3.8100 H   0  0  0  0  0  0  0  0  0  0  0  0
   88.9280  -60.4270   -2.8930 H   0  0  0  0  0  0  0  0  0  0  0  0
   85.5030  -60.6680   -2.5160 H   0  0  0  0  0  0  0  0  0  0  0  0
   84.1510  -58.1560   -2.2760 H   0  0  0  0  0  0  0  0  0  0  0  0
   85.6740  -56.9370   -0.1840 H   0  0  0  0  0  0  0  0  0  0  0  0
   86.6240  -58.3270   -0.6610 H   0  0  0  0  0  0  0  0  0  0  0  0
   84.1580  -59.3160    1.8640 H   0  0  0  0  0  0  0  0  0  0  0  0
   85.8830  -59.4060    1.5710 H   0  0  0  0  0  0  0  0  0  0  0  0
   85.1170  -57.8310    1.8550 H   0  0  0  0  0  0  0  0  0  0  0  0
   86.0360  -55.9210   -2.0480 H   0  0  0  0  0  0  0  0  0  0  0  0
   84.2940  -55.8940   -2.3010 H   0  0  0  0  0  0  0  0  0  0  0  0
   86.0270  -55.6120   -4.4490 H   0  0  0  0  0  0  0  0  0  0  0  0
   84.5980  -56.6090   -4.6470 H   0  0  0  0  0  0  0  0  0  0  0  0
   86.0270  -58.2750   -5.1730 H   0  0  0  0  0  0  0  0  0  0  0  0
   88.0400  -56.3450   -4.5770 H   0  0  0  0  0  0  0  0  0  0  0  0
   89.7740  -57.8340   -3.3010 H   0  0  0  0  0  0  0  0  0  0  0  0
   88.5600  -56.9550   -2.4830 H   0  0  0  0  0  0  0  0  0  0  0  0
   88.4220  -58.6150   -2.5410 H   0  0  0  0  0  0  0  0  0  0  0  0
   88.0740  -57.8590   -6.5270 H   0  0  0  0  0  0  0  0  0  0  0  0
   90.2740  -57.8410   -6.5930 H   0  0  0  0  0  0  0  0  0  0  0  0
   89.3600  -59.6230   -4.6030 H   0  0  0  0  0  0  0  0  0  0  0  0
   91.2610  -59.5420   -5.7360 H   0  0  0  0  0  0  0  0  0  0  0  0
   89.2160  -62.6790   -5.8130 H   0  0  0  0  0  0  0  0  0  0  0  0
   92.0690  -63.4610   -6.4490 H   0  0  0  0  0  0  0  0  0  0  0  0
   90.3560  -65.0260   -6.5140 H   0  0  0  0  0  0  0  0  0  0  0  0
   90.0630  -62.0710   -8.1950 H   0  0  0  0  0  0  0  0  0  0  0  0
   91.4510  -64.9860  -11.3910 H   0  0  0  0  0  0  0  0  0  0  0  0
   93.0220  -64.2880  -10.9610 H   0  0  0  0  0  0  0  0  0  0  0  0
   92.2010  -65.3830   -9.8370 H   0  0  0  0  0  0  0  0  0  0  0  0
   92.6020  -60.9620   -7.0540 H   0  0  0  0  0  0  0  0  0  0  0  0
   90.5130  -59.8730   -8.6880 H   0  0  0  0  0  0  0  0  0  0  0  0
   89.6000  -63.7880   -3.6970 H   0  0  0  0  0  0  0  0  0  0  0  0
   91.3270  -63.4440   -3.8570 H   0  0  0  0  0  0  0  0  0  0  0  0
   92.0520  -68.0500   -4.2780 H   0  0  0  0  0  0  0  0  0  0  0  0
   90.3370  -67.7650   -4.5550 H   0  0  0  0  0  0  0  0  0  0  0  0
   91.4960  -67.4510   -5.8380 H   0  0  0  0  0  0  0  0  0  0  0  0
   92.1000  -66.3590   -2.2430 H   0  0  0  0  0  0  0  0  0  0  0  0
   91.1660  -64.9060   -2.2950 H   0  0  0  0  0  0  0  0  0  0  0  0
   90.3650  -66.4310   -2.4740 H   0  0  0  0  0  0  0  0  0  0  0  0
   93.3600  -65.6880   -5.5410 H   0  0  0  0  0  0  0  0  0  0  0  0
   93.2150  -64.3890   -2.7350 H   0  0  0  0  0  0  0  0  0  0  0  0
   94.5770  -64.3590   -3.9460 H   0  0  0  0  0  0  0  0  0  0  0  0
  1  2  2  0  0  0  0
  1 13  1  0  0  0  0
  1 28  1  0  0  0  0
  2  3  1  0  0  0  0
  2 10  1  0  0  0  0
  3  4  1  0  0  0  0
  3  5  1  0  0  0  0
  3 49  1  6  0  0  0
  4 50  1  0  0  0  0
  4 51  1  0  0  0  0
  4 52  1  0  0  0  0
  5  6  1  0  0  0  0
  5 53  1  0  0  0  0
  5 54  1  0  0  0  0
  6  7  1  0  0  0  0
  7  8  2  0  0  0  0
  7  9  1  0  0  0  0
  9 55  1  0  0  0  0
  9 56  1  0  0  0  0
  9 57  1  0  0  0  0
 10 11  1  0  0  0  0
 10 58  1  0  0  0  0
 10 59  1  0  0  0  0
 11 12  1  0  0  0  0
 11 13  1  0  0  0  0
 11 60  1  1  0  0  0
 12 61  1  0  0  0  0
 13 14  1  1  0  0  0
 13 15  1  0  0  0  0
 14 62  1  0  0  0  0
 14 63  1  0  0  0  0
 14 64  1  0  0  0  0
 15 16  2  0  0  0  0
 15 65  1  0  0  0  0
 16 17  1  0  0  0  0
 16 23  1  0  0  0  0
 17 18  1  0  0  0  0
 17 21  1  0  0  0  0
 17 66  1  6  0  0  0
 18 19  1  0  0  0  0
 18 67  1  0  0  0  0
 18 68  1  0  0  0  0
 19 20  1  0  0  0  0
 20 69  1  0  0  0  0
 20 70  1  0  0  0  0
 20 71  1  0  0  0  0
 21 22  1  0  0  0  0
 21 72  1  0  0  0  0
 21 73  1  0  0  0  0
 22 23  1  0  0  0  0
 22 74  1  0  0  0  0
 22 75  1  0  0  0  0
 23 24  1  0  0  0  0
 23 76  1  6  0  0  0
 24 25  1  0  0  0  0
 24 26  1  0  0  0  0
 24 77  1  6  0  0  0
 25 78  1  0  0  0  0
 25 79  1  0  0  0  0
 25 80  1  0  0  0  0
 26 27  1  0  0  0  0
 26 28  1  0  0  0  0
 26 81  1  6  0  0  0
 27 82  1  0  0  0  0
 28 29  1  0  0  0  0
 28 83  1  1  0  0  0
 29 30  1  0  0  0  0
 30 31  1  0  0  0  0
 30 40  1  0  0  0  0
 30 84  1  1  0  0  0
 31 32  1  0  0  0  0
 32 33  1  0  0  0  0
 32 42  1  0  0  0  0
 32 85  1  6  0  0  0
 33 34  1  0  0  0  0
 33 35  1  0  0  0  0
 33 86  1  1  0  0  0
 34 87  1  0  0  0  0
 35 36  1  0  0  0  0
 35 40  1  0  0  0  0
 35 88  1  6  0  0  0
 36 37  1  0  0  0  0
 37 38  2  0  0  0  0
 37 39  1  0  0  0  0
 39 89  1  0  0  0  0
 39 90  1  0  0  0  0
 39 91  1  0  0  0  0
 40 41  1  0  0  0  0
 40 92  1  1  0  0  0
 41 93  1  0  0  0  0
 42 43  1  0  0  0  0
 42 94  1  0  0  0  0
 42 95  1  0  0  0  0
 43 44  1  0  0  0  0
 44 45  1  0  0  0  0
 44 46  1  0  0  0  0
 44 47  1  0  0  0  0
 45 96  1  0  0  0  0
 45 97  1  0  0  0  0
 45 98  1  0  0  0  0
 46 99  1  0  0  0  0
 46100  1  0  0  0  0
 46101  1  0  0  0  0
 47 48  2  0  0  0  0
 47102  1  0  0  0  0
 48103  1  0  0  0  0
 48104  1  0  0  0  0
M  END
>  <COMPND>
    title: molecule 1

$$$$
6Y6B_ligand0.pdb
 OpenBabel06042612053D

 83 86  0  0  1  0  0  0  0  0999 V2000
  103.8870   89.8290   -3.7990 C   0  0  1  0  0  0  0  0  0  0  0  0
  102.5980   90.9810   -5.6190 C   0  0  0  0  0  0  0  0  0  0  0  0
  104.1560   90.1900   -7.7600 C   0  0  0  0  0  0  0  0  0  0  0  0
  102.9830   89.8500   -8.7190 C   0  0  0  0  0  0  0  0  0  0  0  0
  104.5180   93.8970    1.1460 C   0  0  0  0  0  0  0  0  0  0  0  0
  108.0640   89.3280   -3.2450 C   0  0  0  0  0  0  0  0  0  0  0  0
  105.6430   86.3490   -5.7340 C   0  0  1  0  0  0  0  0  0  0  0  0
  105.5050   85.6120   -8.0310 C   0  0  2  0  0  0  0  0  0  0  0  0
  103.3930   85.6800   -6.6410 C   0  0  1  0  0  0  0  0  0  0  0  0
  106.9290   93.3850   -2.4390 C   0  0  0  0  0  0  0  0  0  0  0  0
  105.7960   92.7320   -2.0990 C   0  0  1  0  0  0  0  0  0  0  0  0
  105.9850   91.2200   -2.6930 C   0  0  2  0  0  0  0  0  0  0  0  0
  106.8790   91.4580   -4.0030 C   0  0  1  0  0  0  0  0  0  0  0  0
  107.6830   92.5330   -3.6960 C   0  0  0  0  0  0  0  0  0  0  0  0
  107.7540   90.2000   -4.4440 C   0  0  2  0  0  0  0  0  0  0  0  0
  107.1060   89.3430   -5.5570 C   0  0  2  0  0  0  0  0  0  0  0  0
  105.7980   88.6290   -5.1800 C   0  0  1  0  0  0  0  0  0  0  0  0
  104.5680   89.6210   -5.0920 C   0  0  1  0  0  0  0  0  0  0  0  0
  104.8340   90.1750   -2.6070 C   0  0  0  0  0  0  0  0  0  0  0  0
  102.9130   91.0310   -4.0850 C   0  0  0  0  0  0  0  0  0  0  0  0
  103.6740   90.0810   -6.2680 C   0  0  1  0  0  0  0  0  0  0  0  0
  104.6630   91.6310   -8.0390 C   0  0  0  0  0  0  0  0  0  0  0  0
  103.0670   88.5670   -3.4460 C   0  0  0  0  0  0  0  0  0  0  0  0
  105.6550   92.6760   -0.5500 C   0  0  0  0  0  0  0  0  0  0  0  0
  106.3150   85.5970   -6.8210 C   0  0  1  0  0  0  0  0  0  0  0  0
  104.1710   85.0090   -7.8070 C   0  0  1  0  0  0  0  0  0  0  0  0
  102.2560   84.8900   -6.3120 C   0  0  0  0  0  0  0  0  0  0  0  0
  105.2730   93.9510   -0.0540 O   0  0  0  0  0  0  0  0  0  0  0  0
  108.0550   88.3800   -5.9690 O   0  0  0  0  0  0  0  0  0  0  0  0
  105.4860   87.6870   -6.1940 O   0  0  0  0  0  0  0  0  0  0  0  0
  104.3230   85.7890   -5.4190 O   0  0  0  0  0  0  0  0  0  0  0  0
  102.0950   84.8490   -4.9150 O   0  0  0  0  0  0  0  0  0  0  0  0
  103.4000   85.1390   -9.0060 O   0  0  0  0  0  0  0  0  0  0  0  0
  106.2120   84.8590   -9.0950 O   0  0  0  0  0  0  0  0  0  0  0  0
  107.6110   86.2360   -7.1070 O   0  0  0  0  0  0  0  0  0  0  0  0
  102.5650   91.9640   -6.0770 H   0  0  0  0  0  0  0  0  0  0  0  0
  101.6090   90.5460   -5.7760 H   0  0  0  0  0  0  0  0  0  0  0  0
  104.9670   89.4850   -7.9410 H   0  0  0  0  0  0  0  0  0  0  0  0
  103.2920   89.9520   -9.7600 H   0  0  0  0  0  0  0  0  0  0  0  0
  102.6410   88.8230   -8.5830 H   0  0  0  0  0  0  0  0  0  0  0  0
  102.1310   90.5120   -8.5590 H   0  0  0  0  0  0  0  0  0  0  0  0
  104.2130   94.8810    1.4870 H   0  0  0  0  0  0  0  0  0  0  0  0
  103.6070   93.3120    1.0100 H   0  0  0  0  0  0  0  0  0  0  0  0
  105.1090   93.4320    1.9350 H   0  0  0  0  0  0  0  0  0  0  0  0
  108.7640   88.5390   -3.5200 H   0  0  0  0  0  0  0  0  0  0  0  0
  108.5830   89.9000   -2.4750 H   0  0  0  0  0  0  0  0  0  0  0  0
  107.2330   88.8220   -2.7720 H   0  0  0  0  0  0  0  0  0  0  0  0
  106.2590   86.3010   -4.8360 H   0  0  0  0  0  0  0  0  0  0  0  0
  105.3770   86.6370   -8.3870 H   0  0  0  0  0  0  0  0  0  0  0  0
  103.0890   86.6920   -6.9130 H   0  0  0  0  0  0  0  0  0  0  0  0
  107.6410   93.5250   -1.6230 H   0  0  0  0  0  0  0  0  0  0  0  0
  106.6950   94.3680   -2.8340 H   0  0  0  0  0  0  0  0  0  0  0  0
  104.9200   93.1940   -2.5560 H   0  0  0  0  0  0  0  0  0  0  0  0
  106.6640   90.8430   -1.9350 H   0  0  0  0  0  0  0  0  0  0  0  0
  106.3250   91.9050   -4.8240 H   0  0  0  0  0  0  0  0  0  0  0  0
  108.6610   92.2150   -3.3390 H   0  0  0  0  0  0  0  0  0  0  0  0
  107.8680   93.1770   -4.5580 H   0  0  0  0  0  0  0  0  0  0  0  0
  108.6930   90.5510   -4.8540 H   0  0  0  0  0  0  0  0  0  0  0  0
  106.9270   89.9710   -6.4300 H   0  0  0  0  0  0  0  0  0  0  0  0
  105.8740   88.1510   -4.2090 H   0  0  0  0  0  0  0  0  0  0  0  0
  105.0660   90.5420   -5.2050 H   0  0  0  0  0  0  0  0  0  0  0  0
  105.2530   89.2350   -2.2540 H   0  0  0  0  0  0  0  0  0  0  0  0
  104.1910   90.4630   -1.7760 H   0  0  0  0  0  0  0  0  0  0  0  0
  103.4910   91.9410   -3.9360 H   0  0  0  0  0  0  0  0  0  0  0  0
  102.0970   91.1670   -3.4160 H   0  0  0  0  0  0  0  0  0  0  0  0
  103.1140   89.1490   -6.3570 H   0  0  0  0  0  0  0  0  0  0  0  0
  105.4400   91.9180   -7.3290 H   0  0  0  0  0  0  0  0  0  0  0  0
  105.0970   91.7030   -9.0360 H   0  0  0  0  0  0  0  0  0  0  0  0
  103.8620   92.3670   -7.9720 H   0  0  0  0  0  0  0  0  0  0  0  0
  102.5250   88.7220   -2.5150 H   0  0  0  0  0  0  0  0  0  0  0  0
  102.3340   88.3250   -4.2160 H   0  0  0  0  0  0  0  0  0  0  0  0
  103.7020   87.6910   -3.3120 H   0  0  0  0  0  0  0  0  0  0  0  0
  106.5710   92.3590   -0.0530 H   0  0  0  0  0  0  0  0  0  0  0  0
  104.8910   91.9430   -0.2910 H   0  0  0  0  0  0  0  0  0  0  0  0
  106.4930   84.5750   -6.4820 H   0  0  0  0  0  0  0  0  0  0  0  0
  104.3170   83.9470   -7.5970 H   0  0  0  0  0  0  0  0  0  0  0  0
  102.3390   83.8590   -6.6570 H   0  0  0  0  0  0  0  0  0  0  0  0
  101.3540   85.2960   -6.7720 H   0  0  0  0  0  0  0  0  0  0  0  0
  107.6350   87.7060   -6.4910 H   0  0  0  0  0  0  0  0  0  0  0  0
  102.9240   84.5380   -4.5250 H   0  0  0  0  0  0  0  0  0  0  0  0
  103.8950   84.7130   -9.7210 H   0  0  0  0  0  0  0  0  0  0  0  0
  107.0430   85.3180   -9.2870 H   0  0  0  0  0  0  0  0  0  0  0  0
  107.5790   86.8120   -7.8990 H   0  0  0  0  0  0  0  0  0  0  0  0
  1 18  1  0  0  0  0
  1 19  1  0  0  0  0
  1 20  1  0  0  0  0
  1 23  1  1  0  0  0
  2 20  1  0  0  0  0
  2 21  1  0  0  0  0
  2 36  1  0  0  0  0
  2 37  1  0  0  0  0
  3  4  1  0  0  0  0
  3 21  1  0  0  0  0
  3 22  1  0  0  0  0
  3 38  1  0  0  0  0
  4 39  1  0  0  0  0
  4 40  1  0  0  0  0
  4 41  1  0  0  0  0
  5 28  1  0  0  0  0
  5 42  1  0  0  0  0
  5 43  1  0  0  0  0
  5 44  1  0  0  0  0
  6 15  1  0  0  0  0
  6 45  1  0  0  0  0
  6 46  1  0  0  0  0
  6 47  1  0  0  0  0
  7 25  1  0  0  0  0
  7 30  1  0  0  0  0
  7 31  1  0  0  0  0
  7 48  1  1  0  0  0
  8 25  1  0  0  0  0
  8 26  1  0  0  0  0
  8 34  1  0  0  0  0
  8 49  1  6  0  0  0
  9 26  1  0  0  0  0
  9 27  1  0  0  0  0
  9 31  1  0  0  0  0
  9 50  1  6  0  0  0
 10 11  1  0  0  0  0
 10 14  1  0  0  0  0
 10 51  1  0  0  0  0
 10 52  1  0  0  0  0
 11 12  1  0  0  0  0
 11 24  1  0  0  0  0
 11 53  1  6  0  0  0
 12 13  1  0  0  0  0
 12 19  1  0  0  0  0
 12 54  1  1  0  0  0
 13 14  1  0  0  0  0
 13 15  1  0  0  0  0
 13 55  1  6  0  0  0
 14 56  1  0  0  0  0
 14 57  1  0  0  0  0
 15 16  1  0  0  0  0
 15 58  1  6  0  0  0
 16 17  1  0  0  0  0
 16 29  1  0  0  0  0
 16 59  1  6  0  0  0
 17 18  1  0  0  0  0
 17 30  1  0  0  0  0
 17 60  1  1  0  0  0
 18 21  1  0  0  0  0
 18 61  1  1  0  0  0
 19 62  1  0  0  0  0
 19 63  1  0  0  0  0
 20 64  1  0  0  0  0
 20 65  1  0  0  0  0
 21 66  1  6  0  0  0
 22 67  1  0  0  0  0
 22 68  1  0  0  0  0
 22 69  1  0  0  0  0
 23 70  1  0  0  0  0
 23 71  1  0  0  0  0
 23 72  1  0  0  0  0
 24 28  1  0  0  0  0
 24 73  1  0  0  0  0
 24 74  1  0  0  0  0
 25 35  1  0  0  0  0
 25 75  1  1  0  0  0
 26 33  1  0  0  0  0
 26 76  1  1  0  0  0
 27 32  1  0  0  0  0
 27 77  1  0  0  0  0
 27 78  1  0  0  0  0
 29 79  1  0  0  0  0
 32 80  1  0  0  0  0
 33 81  1  0  0  0  0
 34 82  1  0  0  0  0
 35 83  1  0  0  0  0
M  END
>  <COMPND>
    title: molecule 1

$$$$
6YGJ_ligand0.pdb
 OpenBabel06042612053D

 39 40  0  0  0  0  0  0  0  0999 V2000
    7.4980    4.1670   19.1390 C   0  0  0  0  0  0  0  0  0  0  0  0
    7.0190    5.0580   20.1620 C   0  0  0  0  0  0  0  0  0  0  0  0
    7.4540    3.8700   22.2220 C   0  0  0  0  0  0  0  0  0  0  0  0
    8.6620    4.6650   22.7420 C   0  0  0  0  0  0  0  0  0  0  0  0
   10.3080    2.7050   22.4060 C   0  0  0  0  0  0  0  0  0  0  0  0
   11.4840    2.7120   21.4130 C   0  0  0  0  0  0  0  0  0  0  0  0
   12.9120    2.7250   21.9880 C   0  0  0  0  0  0  0  0  0  0  0  0
   13.3530    3.7840   22.7750 C   0  0  0  0  0  0  0  0  0  0  0  0
   14.6670    3.7960   23.2520 C   0  0  0  0  0  0  0  0  0  0  0  0
   15.5430    2.7540   22.9530 C   0  0  0  0  0  0  0  0  0  0  0  0
   15.1020    1.7040   22.1610 C   0  0  0  0  0  0  0  0  0  0  0  0
   13.7920    1.6900   21.6730 C   0  0  0  0  0  0  0  0  0  0  0  0
    7.0100    6.4640   19.9560 C   0  0  0  0  0  0  0  0  0  0  0  0
    7.4420    7.0190   18.7530 C   0  0  0  0  0  0  0  0  0  0  0  0
    7.8920    6.1590   17.7310 C   0  0  0  0  0  0  0  0  0  0  0  0
    7.9210    4.7640   17.9290 C   0  0  0  0  0  0  0  0  0  0  0  0
    9.9920    4.0620   22.7960 N   0  0  0  0  0  0  0  0  0  0  0  0
    6.1300    1.7180   19.0930 O   0  5  0  0  0  0  0  0  0  0  0  0
    8.1640    1.5160   18.0520 O   0  0  0  0  0  0  0  0  0  0  0  0
    8.2110    1.7790   20.4290 O   0  0  0  0  0  0  0  0  0  0  0  0
    6.5430    4.6540   21.4680 O   0  0  0  0  0  0  0  0  0  0  0  0
    8.5260    5.7800   23.1560 O   0  0  0  0  0  0  0  0  0  0  0  0
    7.5250    2.2630   19.1920 P   0  3  0  0  0  0  0  0  0  0  0  0
    6.8760    3.8220   23.1440 H   0  0  0  0  0  0  0  0  0  0  0  0
    7.5590    2.8360   22.1430 H   0  0  0  0  0  0  0  0  0  0  0  0
   10.6820    2.2340   23.3160 H   0  0  0  0  0  0  0  0  0  0  0  0
    9.4940    2.0490   22.1880 H   0  0  0  0  0  0  0  0  0  0  0  0
   11.3800    3.5430   20.7130 H   0  0  0  0  0  0  0  0  0  0  0  0
   11.3850    1.8170   20.7980 H   0  0  0  0  0  0  0  0  0  0  0  0
   12.6980    4.6130   22.9970 H   0  0  0  0  0  0  0  0  0  0  0  0
   15.0470    4.6420   23.7940 H   0  0  0  0  0  0  0  0  0  0  0  0
   16.5600    2.7750   23.3150 H   0  0  0  0  0  0  0  0  0  0  0  0
   15.7750    0.8950   21.9180 H   0  0  0  0  0  0  0  0  0  0  0  0
   13.4670    0.8650   21.0560 H   0  0  0  0  0  0  0  0  0  0  0  0
    6.6640    7.1140   20.7460 H   0  0  0  0  0  0  0  0  0  0  0  0
    7.4260    8.0880   18.6080 H   0  0  0  0  0  0  0  0  0  0  0  0
    8.2160    6.5760   16.7890 H   0  0  0  0  0  0  0  0  0  0  0  0
    8.2690    4.1380   17.1270 H   0  0  0  0  0  0  0  0  0  0  0  0
   10.7460    4.6230   23.1630 H   0  0  0  0  0  0  0  0  0  0  0  0
  1  2  2  0  0  0  0
  1 16  1  0  0  0  0
  1 23  1  0  0  0  0
  2 13  1  0  0  0  0
  2 21  1  0  0  0  0
  3  4  1  0  0  0  0
  3 21  1  0  0  0  0
  3 24  1  0  0  0  0
  3 25  1  0  0  0  0
  4 17  1  0  0  0  0
  4 22  2  0  0  0  0
  5  6  1  0  0  0  0
  5 17  1  0  0  0  0
  5 26  1  0  0  0  0
  5 27  1  0  0  0  0
  6  7  1  0  0  0  0
  6 28  1  0  0  0  0
  6 29  1  0  0  0  0
  7  8  2  0  0  0  0
  7 12  1  0  0  0  0
  8  9  1  0  0  0  0
  8 30  1  0  0  0  0
  9 10  2  0  0  0  0
  9 31  1  0  0  0  0
 10 11  1  0  0  0  0
 10 32  1  0  0  0  0
 11 12  2  0  0  0  0
 11 33  1  0  0  0  0
 12 34  1  0  0  0  0
 13 14  2  0  0  0  0
 13 35  1  0  0  0  0
 14 15  1  0  0  0  0
 14 36  1  0  0  0  0
 15 16  2  0  0  0  0
 15 37  1  0  0  0  0
 16 38  1  0  0  0  0
 17 39  1  0  0  0  0
 18 23  1  0  0  0  0
 19 23  2  0  0  0  0
 20 23  2  0  0  0  0
M  CHG  2  18  -1  23   1
M  END
>  <COMPND>
    title: molecule 1

$$$$
6YOW_ligand0.pdb
 OpenBabel06042612053D

 20 20  0  0  0  0  0  0  0  0999 V2000
  -14.6770  -19.2850    0.4790 C   0  0  0  0  0  0  0  0  0  0  0  0
  -15.8760  -20.5210   -0.0590 S   0  0  0  0  0  0  0  0  0  0  0  0
  -15.2100  -21.7900   -0.2600 O   0  0  0  0  0  0  0  0  0  0  0  0
  -16.9740  -20.6810    1.3500 C   0  0  0  0  0  0  0  0  0  0  0  0
  -17.8560  -19.6400    1.5570 C   0  0  0  0  0  0  0  0  0  0  0  0
  -18.6820  -19.7100    2.6610 C   0  0  0  0  0  0  0  0  0  0  0  0
  -18.6190  -20.7960    3.5160 C   0  0  0  0  0  0  0  0  0  0  0  0
  -19.5930  -20.8640    4.6640 C   0  0  0  0  0  0  0  0  0  0  0  0
  -17.7320  -21.8510    3.2570 C   0  0  0  0  0  0  0  0  0  0  0  0
  -16.8910  -21.7830    2.1530 C   0  0  0  0  0  0  0  0  0  0  0  0
  -16.5060  -19.7970   -1.2030 O   0  0  0  0  0  0  0  0  0  0  0  0
  -15.1970  -18.4220    0.8890 H   0  0  0  0  0  0  0  0  0  0  0  0
  -14.0170  -19.7280    1.2220 H   0  0  0  0  0  0  0  0  0  0  0  0
  -14.0750  -18.9760   -0.3760 H   0  0  0  0  0  0  0  0  0  0  0  0
  -17.8910  -18.7890    0.8920 H   0  0  0  0  0  0  0  0  0  0  0  0
  -19.3800  -18.9070    2.8410 H   0  0  0  0  0  0  0  0  0  0  0  0
  -20.5640  -21.0610    4.2060 H   0  0  0  0  0  0  0  0  0  0  0  0
  -19.6630  -19.8520    5.0670 H   0  0  0  0  0  0  0  0  0  0  0  0
  -17.6960  -22.7230    3.8900 H   0  0  0  0  0  0  0  0  0  0  0  0
  -16.1930  -22.5800    1.9460 H   0  0  0  0  0  0  0  0  0  0  0  0
  1  2  1  0  0  0  0
  1 12  1  0  0  0  0
  1 13  1  0  0  0  0
  1 14  1  0  0  0  0
  2  3  2  0  0  0  0
  2  4  1  0  0  0  0
  2 11  2  0  0  0  0
  4  5  2  0  0  0  0
  4 10  1  0  0  0  0
  5  6  1  0  0  0  0
  5 15  1  0  0  0  0
  6  7  2  0  0  0  0
  6 16  1  0  0  0  0
  7  8  1  0  0  0  0
  7  9  1  0  0  0  0
  8 17  1  0  0  0  0
  8 18  1  0  0  0  0
  9 10  2  0  0  0  0
  9 19  1  0  0  0  0
 10 20  1  0  0  0  0
M  END
>  <COMPND>
    title: molecule 1

$$$$
6YOX_ligand0.pdb
 OpenBabel06042612053D

 21 21  0  0  0  0  0  0  0  0999 V2000
  -14.8040  -22.2570   -2.2870 C   0  0  0  0  0  0  0  0  0  0  0  0
  -15.8150  -22.1060   -1.1520 C   0  0  0  0  0  0  0  0  0  0  0  0
  -15.7330  -21.0580   -0.1590 N   0  0  0  0  0  0  0  0  0  0  0  0
  -16.7810  -21.0540    0.8470 C   0  0  0  0  0  0  0  0  0  0  0  0
  -16.7270  -22.0190    1.8450 C   0  0  0  0  0  0  0  0  0  0  0  0
  -17.6980  -22.0840    2.8250 C   0  0  0  0  0  0  0  0  0  0  0  0
  -18.7490  -21.1880    2.8000 C   0  0  0  0  0  0  0  0  0  0  0  0
  -19.7870  -21.3030    3.9160 C   0  0  0  0  0  0  0  0  0  0  0  0
  -18.8290  -20.2190    1.7950 C   0  0  0  0  0  0  0  0  0  0  0  0
  -17.8410  -20.1500    0.8090 C   0  0  0  0  0  0  0  0  0  0  0  0
  -16.7190  -22.8690   -1.0690 O   0  0  0  0  0  0  0  0  0  0  0  0
  -15.2470  -22.7720   -3.1400 H   0  0  0  0  0  0  0  0  0  0  0  0
  -14.4560  -21.2790   -2.6200 H   0  0  0  0  0  0  0  0  0  0  0  0
  -13.9420  -22.8320   -1.9480 H   0  0  0  0  0  0  0  0  0  0  0  0
  -15.0700  -20.2990   -0.2280 H   0  0  0  0  0  0  0  0  0  0  0  0
  -15.9210  -22.7360    1.8580 H   0  0  0  0  0  0  0  0  0  0  0  0
  -17.6280  -22.8350    3.5960 H   0  0  0  0  0  0  0  0  0  0  0  0
  -20.5180  -22.0180    3.5370 H   0  0  0  0  0  0  0  0  0  0  0  0
  -20.3130  -20.3470    3.8950 H   0  0  0  0  0  0  0  0  0  0  0  0
  -19.6500  -19.5170    1.7770 H   0  0  0  0  0  0  0  0  0  0  0  0
  -17.9040  -19.4080    0.0270 H   0  0  0  0  0  0  0  0  0  0  0  0
  1  2  1  0  0  0  0
  1 12  1  0  0  0  0
  1 13  1  0  0  0  0
  1 14  1  0  0  0  0
  2  3  1  0  0  0  0
  2 11  2  0  0  0  0
  3  4  1  0  0  0  0
  3 15  1  0  0  0  0
  4  5  2  0  0  0  0
  4 10  1  0  0  0  0
  5  6  1  0  0  0  0
  5 16  1  0  0  0  0
  6  7  2  0  0  0  0
  6 17  1  0  0  0  0
  7  8  1  0  0  0  0
  7  9  1  0  0  0  0
  8 18  1  0  0  0  0
  8 19  1  0  0  0  0
  9 10  2  0  0  0  0
  9 20  1  0  0  0  0
 10 21  1  0  0  0  0
M  END
>  <COMPND>
    title: molecule 1

$$$$
6YP2_ligand0.pdb
 OpenBabel06042612053D

 21 22  0  0  0  0  0  0  0  0999 V2000
  -15.1460  -19.9510   -0.0670 C   0  0  0  0  0  0  0  0  0  0  0  0
  -14.5610  -21.6080   -1.3610 N   0  0  0  0  0  0  0  0  0  0  0  0
  -15.4920  -22.0420   -0.4930 C   0  0  0  0  0  0  0  0  0  0  0  0
  -19.8210  -21.1570    4.3980 C   0  0  0  0  0  0  0  0  0  0  0  0
  -18.7500  -21.1360    3.3150 C   0  0  0  0  0  0  0  0  0  0  0  0
  -17.7860  -22.1350    3.2550 C   0  0  0  0  0  0  0  0  0  0  0  0
  -16.8160  -22.1030    2.2660 C   0  0  0  0  0  0  0  0  0  0  0  0
  -16.8160  -21.0620    1.3490 C   0  0  0  0  0  0  0  0  0  0  0  0
  -17.7790  -20.0650    1.4100 C   0  0  0  0  0  0  0  0  0  0  0  0
  -18.7480  -20.1030    2.3930 C   0  0  0  0  0  0  0  0  0  0  0  0
  -14.3510  -20.3240   -1.1100 C   0  0  0  0  0  0  0  0  0  0  0  0
  -15.8280  -21.0080    0.2940 N   0  0  0  0  0  0  0  0  0  0  0  0
  -15.2540  -18.9930    0.4220 H   0  0  0  0  0  0  0  0  0  0  0  0
  -15.8950  -23.0420   -0.4440 H   0  0  0  0  0  0  0  0  0  0  0  0
  -20.6520  -21.7630    4.0370 H   0  0  0  0  0  0  0  0  0  0  0  0
  -20.2000  -20.1470    4.5400 H   0  0  0  0  0  0  0  0  0  0  0  0
  -17.7920  -22.9590    3.9500 H   0  0  0  0  0  0  0  0  0  0  0  0
  -16.0720  -22.8780    2.1970 H   0  0  0  0  0  0  0  0  0  0  0  0
  -17.7800  -19.2610    0.6880 H   0  0  0  0  0  0  0  0  0  0  0  0
  -19.5040  -19.3310    2.4250 H   0  0  0  0  0  0  0  0  0  0  0  0
  -13.6500  -19.7380   -1.6870 H   0  0  0  0  0  0  0  0  0  0  0  0
  1 11  2  0  0  0  0
  1 12  1  0  0  0  0
  1 13  1  0  0  0  0
  2  3  2  0  0  0  0
  2 11  1  0  0  0  0
  3 12  1  0  0  0  0
  3 14  1  0  0  0  0
  4  5  1  0  0  0  0
  4 15  1  0  0  0  0
  4 16  1  0  0  0  0
  5  6  2  0  0  0  0
  5 10  1  0  0  0  0
  6  7  1  0  0  0  0
  6 17  1  0  0  0  0
  7  8  2  0  0  0  0
  7 18  1  0  0  0  0
  8  9  1  0  0  0  0
  8 12  1  0  0  0  0
  9 10  2  0  0  0  0
  9 19  1  0  0  0  0
 10 20  1  0  0  0  0
 11 21  1  0  0  0  0
M  END
>  <COMPND>
    title: molecule 1

$$$$
6YP3_ligand0.pdb
 OpenBabel06042612053D

 20 21  0  0  0  0  0  0  0  0999 V2000
  -19.6630  -21.1910    4.3560 C   0  0  0  0  0  0  0  0  0  0  0  0
  -18.6020  -21.1290    3.2630 C   0  0  0  0  0  0  0  0  0  0  0  0
  -17.5920  -22.0790    3.2220 C   0  0  0  0  0  0  0  0  0  0  0  0
  -16.6340  -22.0160    2.2250 C   0  0  0  0  0  0  0  0  0  0  0  0
  -16.6880  -21.0040    1.2770 C   0  0  0  0  0  0  0  0  0  0  0  0
  -15.0380  -19.8650   -0.1360 C   0  0  0  0  0  0  0  0  0  0  0  0
  -14.4000  -21.5280   -1.3810 C   0  0  0  0  0  0  0  0  0  0  0  0
  -17.6990  -20.0560    1.3180 C   0  0  0  0  0  0  0  0  0  0  0  0
  -18.6590  -20.1200    2.3130 C   0  0  0  0  0  0  0  0  0  0  0  0
  -15.6930  -20.9380    0.2260 N   0  0  0  0  0  0  0  0  0  0  0  0
  -14.2240  -20.2140   -1.1390 N   0  0  0  0  0  0  0  0  0  0  0  0
  -15.3070  -21.9720   -0.5340 N   0  0  0  0  0  0  0  0  0  0  0  0
  -20.4500  -21.8340    3.9590 H   0  0  0  0  0  0  0  0  0  0  0  0
  -20.1120  -20.1980    4.4110 H   0  0  0  0  0  0  0  0  0  0  0  0
  -17.5700  -22.8930    3.9280 H   0  0  0  0  0  0  0  0  0  0  0  0
  -15.8700  -22.7720    2.1670 H   0  0  0  0  0  0  0  0  0  0  0  0
  -15.1290  -18.8800    0.2970 H   0  0  0  0  0  0  0  0  0  0  0  0
  -13.8980  -22.1250   -2.1280 H   0  0  0  0  0  0  0  0  0  0  0  0
  -17.7490  -19.2710    0.5770 H   0  0  0  0  0  0  0  0  0  0  0  0
  -19.4500  -19.3840    2.3370 H   0  0  0  0  0  0  0  0  0  0  0  0
  1  2  1  0  0  0  0
  1 13  1  0  0  0  0
  1 14  1  0  0  0  0
  2  3  2  0  0  0  0
  2  9  1  0  0  0  0
  3  4  1  0  0  0  0
  3 15  1  0  0  0  0
  4  5  2  0  0  0  0
  4 16  1  0  0  0  0
  5  8  1  0  0  0  0
  5 10  1  0  0  0  0
  6 10  1  0  0  0  0
  6 11  2  0  0  0  0
  6 17  1  0  0  0  0
  7 11  1  0  0  0  0
  7 12  2  0  0  0  0
  7 18  1  0  0  0  0
  8  9  2  0  0  0  0
  8 19  1  0  0  0  0
  9 20  1  0  0  0  0
 10 12  1  0  0  0  0
M  END
>  <COMPND>
    title: molecule 1

$$$$
6YP8_ligand0.pdb
 OpenBabel06042612053D

 21 22  0  0  0  0  0  0  0  0999 V2000
  -19.5570  -21.4940    4.2490 C   0  0  0  0  0  0  0  0  0  0  0  0
  -18.5230  -21.3600    3.1330 C   0  0  0  0  0  0  0  0  0  0  0  0
  -18.5990  -20.2980    2.2450 C   0  0  0  0  0  0  0  0  0  0  0  0
  -17.6640  -20.1700    1.2280 C   0  0  0  0  0  0  0  0  0  0  0  0
  -18.6900  -18.8510   -0.5840 C   0  0  0  0  0  0  0  0  0  0  0  0
  -18.4020  -17.6970   -1.2500 C   0  0  0  0  0  0  0  0  0  0  0  0
  -16.8620  -18.0490    0.2140 C   0  0  0  0  0  0  0  0  0  0  0  0
  -16.6520  -21.1100    1.0990 C   0  0  0  0  0  0  0  0  0  0  0  0
  -16.5790  -22.1730    1.9860 C   0  0  0  0  0  0  0  0  0  0  0  0
  -17.5120  -22.2990    3.0030 C   0  0  0  0  0  0  0  0  0  0  0  0
  -17.7460  -19.0500    0.3030 N   0  0  0  0  0  0  0  0  0  0  0  0
  -17.2790  -17.2130   -0.7530 N   0  0  0  0  0  0  0  0  0  0  0  0
  -20.2010  -22.3030    3.9010 H   0  0  0  0  0  0  0  0  0  0  0  0
  -20.1840  -20.6060    4.1560 H   0  0  0  0  0  0  0  0  0  0  0  0
  -19.3880  -19.5630    2.3300 H   0  0  0  0  0  0  0  0  0  0  0  0
  -19.5230  -19.5290   -0.6970 H   0  0  0  0  0  0  0  0  0  0  0  0
  -18.9470  -17.1920   -2.0310 H   0  0  0  0  0  0  0  0  0  0  0  0
  -15.9830  -17.9190    0.8280 H   0  0  0  0  0  0  0  0  0  0  0  0
  -15.9250  -21.0170    0.3060 H   0  0  0  0  0  0  0  0  0  0  0  0
  -15.8220  -22.9280    1.8620 H   0  0  0  0  0  0  0  0  0  0  0  0
  -17.4680  -23.1460    3.6690 H   0  0  0  0  0  0  0  0  0  0  0  0
  1  2  1  0  0  0  0
  1 13  1  0  0  0  0
  1 14  1  0  0  0  0
  2  3  2  0  0  0  0
  2 10  1  0  0  0  0
  3  4  1  0  0  0  0
  3 15  1  0  0  0  0
  4  8  2  0  0  0  0
  4 11  1  0  0  0  0
  5  6  2  0  0  0  0
  5 11  1  0  0  0  0
  5 16  1  0  0  0  0
  6 12  1  0  0  0  0
  6 17  1  0  0  0  0
  7 11  1  0  0  0  0
  7 12  2  0  0  0  0
  7 18  1  0  0  0  0
  8  9  1  0  0  0  0
  8 19  1  0  0  0  0
  9 10  2  0  0  0  0
  9 20  1  0  0  0  0
 10 21  1  0  0  0  0
M  END
>  <COMPND>
    title: molecule 1

$$$$
6YPL_ligand0.pdb
 OpenBabel06042612053D

 20 20  0  0  0  0  0  0  0  0999 V2000
  -20.8300  -19.3730    0.1000 C   0  0  0  0  0  0  0  0  0  0  0  0
  -19.0510  -20.6240    2.1010 C   0  0  0  0  0  0  0  0  0  0  0  0
  -18.8350  -21.3710    3.2520 C   0  0  0  0  0  0  0  0  0  0  0  0
  -19.8560  -21.4060    4.3840 C   0  0  0  0  0  0  0  0  0  0  0  0
  -17.6630  -22.0990    3.3950 C   0  0  0  0  0  0  0  0  0  0  0  0
  -16.7020  -22.0950    2.4020 C   0  0  0  0  0  0  0  0  0  0  0  0
  -16.9160  -21.3510    1.2490 C   0  0  0  0  0  0  0  0  0  0  0  0
  -18.0890  -20.6180    1.1030 C   0  0  0  0  0  0  0  0  0  0  0  0
  -21.7630  -20.2360    2.4970 O   0  0  0  0  0  0  0  0  0  0  0  0
  -20.4740  -18.3810    2.6040 O   0  0  0  0  0  0  0  0  0  0  0  0
  -20.5680  -19.6490    1.8790 S   0  0  0  0  0  0  0  0  0  0  0  0
  -21.7800  -18.8640   -0.0510 H   0  0  0  0  0  0  0  0  0  0  0  0
  -20.0310  -18.7530   -0.3040 H   0  0  0  0  0  0  0  0  0  0  0  0
  -20.8490  -20.3330   -0.4090 H   0  0  0  0  0  0  0  0  0  0  0  0
  -20.7130  -21.9890    4.0490 H   0  0  0  0  0  0  0  0  0  0  0  0
  -20.2000  -20.3890    4.5740 H   0  0  0  0  0  0  0  0  0  0  0  0
  -17.5480  -22.8280    4.1700 H   0  0  0  0  0  0  0  0  0  0  0  0
  -15.8510  -22.7430    2.4720 H   0  0  0  0  0  0  0  0  0  0  0  0
  -16.1830  -21.3630    0.4560 H   0  0  0  0  0  0  0  0  0  0  0  0
  -18.2290  -20.0440    0.2010 H   0  0  0  0  0  0  0  0  0  0  0  0
  1 11  1  0  0  0  0
  1 12  1  0  0  0  0
  1 13  1  0  0  0  0
  1 14  1  0  0  0  0
  2  3  2  0  0  0  0
  2  8  1  0  0  0  0
  2 11  1  0  0  0  0
  3  4  1  0  0  0  0
  3  5  1  0  0  0  0
  4 15  1  0  0  0  0
  4 16  1  0  0  0  0
  5  6  2  0  0  0  0
  5 17  1  0  0  0  0
  6  7  1  0  0  0  0
  6 18  1  0  0  0  0
  7  8  2  0  0  0  0
  7 19  1  0  0  0  0
  8 20  1  0  0  0  0
  9 11  2  0  0  0  0
 10 11  2  0  0  0  0
M  END
>  <COMPND>
    title: molecule 1

$$$$
6YPY_ligand0.pdb
 OpenBabel06042612053D

 36 37  0  0  0  0  0  0  0  0999 V2000
   22.7540   23.6440   -2.1030 C   0  0  0  0  0  0  0  0  0  0  0  0
   21.5090   24.5040   -1.9190 C   0  0  0  0  0  0  0  0  0  0  0  0
   19.0620   24.7360   -2.0530 C   0  0  0  0  0  0  0  0  0  0  0  0
   18.2240   24.0140   -1.0180 C   0  0  0  0  0  0  0  0  0  0  0  0
   17.5860   21.5540    1.0380 C   0  0  0  0  0  0  0  0  0  0  0  0
   18.4420   20.4890    1.1960 C   0  0  0  0  0  0  0  0  0  0  0  0
   19.1080   20.3370    2.3830 C   0  0  0  0  0  0  0  0  0  0  0  0
   18.8890   21.2550    3.4070 C   0  0  0  0  0  0  0  0  0  0  0  0
   18.0340   22.3460    3.2470 C   0  0  0  0  0  0  0  0  0  0  0  0
   17.3630   22.4930    2.0500 C   0  0  0  0  0  0  0  0  0  0  0  0
   19.6730   21.0210    4.6680 C   0  0  0  0  0  0  0  0  0  0  0  0
   19.2140   21.8760   -1.7600 C   0  0  0  0  0  0  0  0  0  0  0  0
   20.0320   22.6730   -2.7540 C   0  0  0  0  0  0  0  0  0  0  0  0
   20.2480   23.9780   -2.2420 N   0  0  0  0  0  0  0  0  0  0  0  0
   17.9450   22.6110   -1.4580 N   0  0  0  0  0  0  0  0  0  0  0  0
   15.6030   22.5370   -0.4310 O   0  0  0  0  0  0  0  0  0  0  0  0
   16.6360   20.4430   -1.1780 O   0  0  0  0  0  0  0  0  0  0  0  0
   21.5900   25.6170   -1.5260 O   0  0  0  0  0  0  0  0  0  0  0  0
   16.8400   21.7520   -0.5530 S   0  0  0  0  0  0  0  0  0  0  0  0
   23.6440   24.1540   -1.7350 H   0  0  0  0  0  0  0  0  0  0  0  0
   22.6630   22.7010   -1.5660 H   0  0  0  0  0  0  0  0  0  0  0  0
   22.9010   23.4270   -3.1570 H   0  0  0  0  0  0  0  0  0  0  0  0
   19.2210   25.7670   -1.7360 H   0  0  0  0  0  0  0  0  0  0  0  0
   18.5200   24.7990   -2.9980 H   0  0  0  0  0  0  0  0  0  0  0  0
   17.2820   24.5430   -0.8910 H   0  0  0  0  0  0  0  0  0  0  0  0
   18.7270   24.0080   -0.0500 H   0  0  0  0  0  0  0  0  0  0  0  0
   18.5890   19.7960    0.3860 H   0  0  0  0  0  0  0  0  0  0  0  0
   19.7820   19.5040    2.5150 H   0  0  0  0  0  0  0  0  0  0  0  0
   17.8850   23.0830    4.0190 H   0  0  0  0  0  0  0  0  0  0  0  0
   16.7030   23.3290    1.8810 H   0  0  0  0  0  0  0  0  0  0  0  0
   20.7270   21.0720    4.3880 H   0  0  0  0  0  0  0  0  0  0  0  0
   19.4880   20.0030    5.0170 H   0  0  0  0  0  0  0  0  0  0  0  0
   19.7880   21.7230   -0.8460 H   0  0  0  0  0  0  0  0  0  0  0  0
   18.9840   20.8930   -2.1710 H   0  0  0  0  0  0  0  0  0  0  0  0
   19.4950   22.7470   -3.7010 H   0  0  0  0  0  0  0  0  0  0  0  0
   20.9530   22.1590   -2.9920 H   0  0  0  0  0  0  0  0  0  0  0  0
  1  2  1  0  0  0  0
  1 20  1  0  0  0  0
  1 21  1  0  0  0  0
  1 22  1  0  0  0  0
  2 14  1  0  0  0  0
  2 18  2  0  0  0  0
  3  4  1  0  0  0  0
  3 14  1  0  0  0  0
  3 23  1  0  0  0  0
  3 24  1  0  0  0  0
  4 15  1  0  0  0  0
  4 25  1  0  0  0  0
  4 26  1  0  0  0  0
  5  6  2  0  0  0  0
  5 10  1  0  0  0  0
  5 19  1  0  0  0  0
  6  7  1  0  0  0  0
  6 27  1  0  0  0  0
  7  8  2  0  0  0  0
  7 28  1  0  0  0  0
  8  9  1  0  0  0  0
  8 11  1  0  0  0  0
  9 10  2  0  0  0  0
  9 29  1  0  0  0  0
 10 30  1  0  0  0  0
 11 31  1  0  0  0  0
 11 32  1  0  0  0  0
 12 13  1  0  0  0  0
 12 15  1  0  0  0  0
 12 33  1  0  0  0  0
 12 34  1  0  0  0  0
 13 14  1  0  0  0  0
 13 35  1  0  0  0  0
 13 36  1  0  0  0  0
 15 19  1  0  0  0  0
 16 19  2  0  0  0  0
 17 19  2  0  0  0  0
M  END
>  <COMPND>
    title: molecule 1

$$$$
6YQ2_ligand0.pdb
 OpenBabel06042612053D

 36 37  0  0  1  0  0  0  0  0999 V2000
  -28.9560  -17.8890   -2.3190 C   0  0  0  0  0  0  0  0  0  0  0  0
  -28.0590  -17.9090   -1.0830 C   0  0  1  0  0  0  0  0  0  0  0  0
  -27.1130  -19.0970   -1.1970 C   0  0  0  0  0  0  0  0  0  0  0  0
  -24.2720  -20.8450   -1.0970 C   0  0  0  0  0  0  0  0  0  0  0  0
  -24.5890  -21.6870   -2.1490 C   0  0  0  0  0  0  0  0  0  0  0  0
  -23.6790  -21.8050   -3.1780 C   0  0  0  0  0  0  0  0  0  0  0  0
  -22.4930  -21.0800   -3.1140 C   0  0  0  0  0  0  0  0  0  0  0  0
  -22.1850  -20.2540   -2.0530 C   0  0  0  0  0  0  0  0  0  0  0  0
  -23.0960  -20.1280   -1.0360 C   0  0  0  0  0  0  0  0  0  0  0  0
  -21.4660  -21.1680   -4.2200 C   0  0  0  0  0  0  0  0  0  0  0  0
  -25.5290  -17.8880    0.1030 C   0  0  0  0  0  0  0  0  0  0  0  0
  -26.4790  -16.6940    0.1050 C   0  0  1  0  0  0  0  0  0  0  0  0
  -25.6340  -15.4210    0.0500 C   0  0  0  0  0  0  0  0  0  0  0  0
  -26.2470  -19.1650   -0.0170 N   0  0  0  0  0  0  0  0  0  0  0  0
  -24.6480  -20.5750    1.5090 O   0  0  0  0  0  0  0  0  0  0  0  0
  -26.3200  -21.7540    0.3290 O   0  0  0  0  0  0  0  0  0  0  0  0
  -27.3470  -16.7210   -0.9840 O   0  0  0  0  0  0  0  0  0  0  0  0
  -25.4160  -20.6160    0.2620 S   0  0  0  0  0  0  0  0  0  0  0  0
  -29.6400  -17.0420   -2.3000 H   0  0  0  0  0  0  0  0  0  0  0  0
  -28.3620  -17.8170   -3.2300 H   0  0  0  0  0  0  0  0  0  0  0  0
  -29.5600  -18.7940   -2.3850 H   0  0  0  0  0  0  0  0  0  0  0  0
  -28.6690  -18.0150   -0.1890 H   0  0  0  0  0  0  0  0  0  0  0  0
  -26.5000  -19.0260   -2.0960 H   0  0  0  0  0  0  0  0  0  0  0  0
  -27.6850  -20.0210   -1.2730 H   0  0  0  0  0  0  0  0  0  0  0  0
  -25.5110  -22.2470   -2.1620 H   0  0  0  0  0  0  0  0  0  0  0  0
  -23.8860  -22.5020   -3.9690 H   0  0  0  0  0  0  0  0  0  0  0  0
  -21.2460  -19.7320   -1.9830 H   0  0  0  0  0  0  0  0  0  0  0  0
  -22.8830  -19.4860   -0.1940 H   0  0  0  0  0  0  0  0  0  0  0  0
  -20.5380  -21.6230   -3.8720 H   0  0  0  0  0  0  0  0  0  0  0  0
  -21.3010  -20.1630   -4.5410 H   0  0  0  0  0  0  0  0  0  0  0  0
  -24.9390  -17.8950    1.0200 H   0  0  0  0  0  0  0  0  0  0  0  0
  -24.8220  -17.8060   -0.7240 H   0  0  0  0  0  0  0  0  0  0  0  0
  -27.0680  -16.6960    1.0240 H   0  0  0  0  0  0  0  0  0  0  0  0
  -26.2590  -14.5280    0.0790 H   0  0  0  0  0  0  0  0  0  0  0  0
  -24.9430  -15.3750    0.8900 H   0  0  0  0  0  0  0  0  0  0  0  0
  -25.0490  -15.3890   -0.8640 H   0  0  0  0  0  0  0  0  0  0  0  0
  1  2  1  0  0  0  0
  1 19  1  0  0  0  0
  1 20  1  0  0  0  0
  1 21  1  0  0  0  0
  2  3  1  0  0  0  0
  2 17  1  0  0  0  0
  2 22  1  1  0  0  0
  3 14  1  0  0  0  0
  3 23  1  0  0  0  0
  3 24  1  0  0  0  0
  4  5  2  0  0  0  0
  4  9  1  0  0  0  0
  4 18  1  0  0  0  0
  5  6  1  0  0  0  0
  5 25  1  0  0  0  0
  6  7  2  0  0  0  0
  6 26  1  0  0  0  0
  7  8  1  0  0  0  0
  7 10  1  0  0  0  0
  8  9  2  0  0  0  0
  8 27  1  0  0  0  0
  9 28  1  0  0  0  0
 10 29  1  0  0  0  0
 10 30  1  0  0  0  0
 11 12  1  0  0  0  0
 11 14  1  0  0  0  0
 11 31  1  0  0  0  0
 11 32  1  0  0  0  0
 12 13  1  0  0  0  0
 12 17  1  0  0  0  0
 12 33  1  1  0  0  0
 13 34  1  0  0  0  0
 13 35  1  0  0  0  0
 13 36  1  0  0  0  0
 14 18  1  0  0  0  0
 15 18  2  0  0  0  0
 16 18  2  0  0  0  0
M  END
>  <COMPND>
    title: molecule 1

$$$$
7AXN_ligand0.pdb
 OpenBabel06042612053D

 21 22  0  0  0  0  0  0  0  0999 V2000
   22.3440   21.3610   -0.6370 C   0  0  0  0  0  0  0  0  0  0  0  0
   21.5850   21.0640   -1.7430 C   0  0  0  0  0  0  0  0  0  0  0  0
   22.1240   21.4570   -2.9500 C   0  0  0  0  0  0  0  0  0  0  0  0
   21.2760   21.1320   -4.1470 C   0  0  0  0  0  0  0  0  0  0  0  0
   23.3500   22.0910   -3.0530 C   0  0  0  0  0  0  0  0  0  0  0  0
   24.0790   22.3720   -1.9000 C   0  0  0  0  0  0  0  0  0  0  0  0
   23.5670   21.9910   -0.6630 C   0  0  0  0  0  0  0  0  0  0  0  0
   24.0630   23.1530    1.4650 C   0  0  0  0  0  0  0  0  0  0  0  0
   25.1120   23.1940    2.3370 C   0  0  0  0  0  0  0  0  0  0  0  0
   25.6090   21.8100    0.7240 C   0  0  0  0  0  0  0  0  0  0  0  0
   24.3760   22.3060    0.5040 N   0  0  0  0  0  0  0  0  0  0  0  0
   26.0630   22.3660    1.8850 N   0  0  0  0  0  0  0  0  0  0  0  0
   21.6950   20.9040    0.9580 Cl  0  0  0  0  0  0  0  0  0  0  0  0
   20.6300   20.5650   -1.6620 H   0  0  0  0  0  0  0  0  0  0  0  0
   21.1980   20.0510   -4.2570 H   0  0  0  0  0  0  0  0  0  0  0  0
   20.2700   21.4930   -3.9280 H   0  0  0  0  0  0  0  0  0  0  0  0
   23.7630   22.4200   -3.9790 H   0  0  0  0  0  0  0  0  0  0  0  0
   25.0340   22.8670   -1.9630 H   0  0  0  0  0  0  0  0  0  0  0  0
   23.0820   23.6020    1.5290 H   0  0  0  0  0  0  0  0  0  0  0  0
   24.9880   23.3670    3.3720 H   0  0  0  0  0  0  0  0  0  0  0  0
   26.1400   21.1170    0.0950 H   0  0  0  0  0  0  0  0  0  0  0  0
  1  2  2  0  0  0  0
  1  7  1  0  0  0  0
  1 13  1  0  0  0  0
  2  3  1  0  0  0  0
  2 14  1  0  0  0  0
  3  4  1  0  0  0  0
  3  5  2  0  0  0  0
  4 15  1  0  0  0  0
  4 16  1  0  0  0  0
  5  6  1  0  0  0  0
  5 17  1  0  0  0  0
  6  7  2  0  0  0  0
  6 18  1  0  0  0  0
  7 11  1  0  0  0  0
  8  9  2  0  0  0  0
  8 11  1  0  0  0  0
  8 19  1  0  0  0  0
  9 12  1  0  0  0  0
  9 20  1  0  0  0  0
 10 11  1  0  0  0  0
 10 12  2  0  0  0  0
 10 21  1  0  0  0  0
M  END
>  <COMPND>
    title: molecule 1

$$$$
7AYF_ligand0.pdb
 OpenBabel06042612053D

 20 21  0  0  0  0  0  0  0  0999 V2000
  -21.9950  -21.2690   -3.0090 C   0  0  0  0  0  0  0  0  0  0  0  0
  -21.2450  -20.9410   -4.2940 C   0  0  0  0  0  0  0  0  0  0  0  0
  -23.8850  -23.1810    1.2690 C   0  0  0  0  0  0  0  0  0  0  0  0
  -25.7480  -22.2690    1.8660 C   0  0  0  0  0  0  0  0  0  0  0  0
  -25.3260  -21.6710    0.7190 C   0  0  0  0  0  0  0  0  0  0  0  0
  -23.4070  -21.8980   -0.7950 C   0  0  0  0  0  0  0  0  0  0  0  0
  -23.2300  -21.8920   -3.0830 C   0  0  0  0  0  0  0  0  0  0  0  0
  -21.4320  -20.9410   -1.7770 C   0  0  0  0  0  0  0  0  0  0  0  0
  -22.1700  -21.2820   -0.6500 C   0  0  0  0  0  0  0  0  0  0  0  0
  -24.8600  -23.1930    2.1960 N   0  0  0  0  0  0  0  0  0  0  0  0
  -24.1900  -22.2370    0.3770 N   0  0  0  0  0  0  0  0  0  0  0  0
  -23.8990  -22.1900   -1.9840 N   0  0  0  0  0  0  0  0  0  0  0  0
  -22.3070  -24.3160    1.2040 Br  0  0  0  0  0  0  0  0  0  0  0  0
  -21.2730  -19.8750   -4.5110 H   0  0  0  0  0  0  0  0  0  0  0  0
  -20.2040  -21.2130   -4.1270 H   0  0  0  0  0  0  0  0  0  0  0  0
  -26.6310  -22.0820    2.4600 H   0  0  0  0  0  0  0  0  0  0  0  0
  -25.7690  -20.8790    0.1350 H   0  0  0  0  0  0  0  0  0  0  0  0
  -23.7290  -22.1630   -3.9880 H   0  0  0  0  0  0  0  0  0  0  0  0
  -20.4690  -20.4580   -1.6990 H   0  0  0  0  0  0  0  0  0  0  0  0
  -21.7840  -21.0590    0.3340 H   0  0  0  0  0  0  0  0  0  0  0  0
  1  2  1  0  0  0  0
  1  7  2  0  0  0  0
  1  8  1  0  0  0  0
  2 14  1  0  0  0  0
  2 15  1  0  0  0  0
  3 10  2  0  0  0  0
  3 11  1  0  0  0  0
  3 13  1  0  0  0  0
  4  5  2  0  0  0  0
  4 10  1  0  0  0  0
  4 16  1  0  0  0  0
  5 11  1  0  0  0  0
  5 17  1  0  0  0  0
  6  9  1  0  0  0  0
  6 11  1  0  0  0  0
  6 12  2  0  0  0  0
  7 12  1  0  0  0  0
  7 18  1  0  0  0  0
  8  9  2  0  0  0  0
  8 19  1  0  0  0  0
  9 20  1  0  0  0  0
M  END
>  <COMPND>
    title: molecule 1

$$$$
7AZ1_ligand0.pdb
 OpenBabel06042612053D

 34 36  0  0  0  0  0  0  0  0999 V2000
   21.3800   20.9190   -4.3110 C   0  0  0  0  0  0  0  0  0  0  0  0
   22.2290   21.1650   -3.0750 C   0  0  0  0  0  0  0  0  0  0  0  0
   23.4840   21.7380   -3.2250 C   0  0  0  0  0  0  0  0  0  0  0  0
   24.2730   21.9740   -2.1150 C   0  0  0  0  0  0  0  0  0  0  0  0
   23.8100   21.6430   -0.8550 C   0  0  0  0  0  0  0  0  0  0  0  0
   24.4860   22.7350    1.3100 C   0  0  0  0  0  0  0  0  0  0  0  0
   23.2370   23.5530    1.6230 C   0  0  0  0  0  0  0  0  0  0  0  0
   22.8050   23.6350    2.9360 C   0  0  0  0  0  0  0  0  0  0  0  0
   21.6780   24.3770    3.2430 C   0  0  0  0  0  0  0  0  0  0  0  0
   20.9860   25.0380    2.2400 C   0  0  0  0  0  0  0  0  0  0  0  0
   21.4200   24.9580    0.9260 C   0  0  0  0  0  0  0  0  0  0  0  0
   22.5490   24.2180    0.6180 C   0  0  0  0  0  0  0  0  0  0  0  0
   26.4660   21.9030    1.5220 C   0  0  0  0  0  0  0  0  0  0  0  0
   25.9060   21.4220    0.3740 C   0  0  0  0  0  0  0  0  0  0  0  0
   22.5500   21.0720   -0.7020 C   0  0  0  0  0  0  0  0  0  0  0  0
   21.7510   20.8290   -1.8190 C   0  0  0  0  0  0  0  0  0  0  0  0
   20.3580   20.2090   -1.6550 C   0  0  0  0  0  0  0  0  0  0  0  0
   19.4040   21.0500   -2.1430 F   0  0  0  0  0  0  0  0  0  0  0  0
   20.0980   20.0040   -0.3350 F   0  0  0  0  0  0  0  0  0  0  0  0
   20.2340   19.0190   -2.3030 F   0  0  0  0  0  0  0  0  0  0  0  0
   24.7000   21.9220    0.2630 N   0  0  0  0  0  0  0  0  0  0  0  0
   25.5850   22.7070    2.0860 N   0  0  0  0  0  0  0  0  0  0  0  0
   21.3690   19.8480   -4.5200 H   0  0  0  0  0  0  0  0  0  0  0  0
   20.3580   21.2210   -4.1170 H   0  0  0  0  0  0  0  0  0  0  0  0
   23.9220   21.9940   -4.1500 H   0  0  0  0  0  0  0  0  0  0  0  0
   25.2350   22.4420   -2.2300 H   0  0  0  0  0  0  0  0  0  0  0  0
   23.3470   23.1310    3.7230 H   0  0  0  0  0  0  0  0  0  0  0  0
   21.3780   24.4320    4.2690 H   0  0  0  0  0  0  0  0  0  0  0  0
   20.1250   25.6350    2.4900 H   0  0  0  0  0  0  0  0  0  0  0  0
   20.8660   25.4650    0.1560 H   0  0  0  0  0  0  0  0  0  0  0  0
   22.8860   24.1720   -0.4070 H   0  0  0  0  0  0  0  0  0  0  0  0
   27.4220   21.7160    1.9850 H   0  0  0  0  0  0  0  0  0  0  0  0
   26.2960   20.7550   -0.3720 H   0  0  0  0  0  0  0  0  0  0  0  0
   22.2100   20.8250    0.2930 H   0  0  0  0  0  0  0  0  0  0  0  0
  1  2  1  0  0  0  0
  1 23  1  0  0  0  0
  1 24  1  0  0  0  0
  2  3  2  0  0  0  0
  2 16  1  0  0  0  0
  3  4  1  0  0  0  0
  3 25  1  0  0  0  0
  4  5  2  0  0  0  0
  4 26  1  0  0  0  0
  5 15  1  0  0  0  0
  5 21  1  0  0  0  0
  6  7  1  0  0  0  0
  6 21  1  0  0  0  0
  6 22  2  0  0  0  0
  7  8  2  0  0  0  0
  7 12  1  0  0  0  0
  8  9  1  0  0  0  0
  8 27  1  0  0  0  0
  9 10  2  0  0  0  0
  9 28  1  0  0  0  0
 10 11  1  0  0  0  0
 10 29  1  0  0  0  0
 11 12  2  0  0  0  0
 11 30  1  0  0  0  0
 12 31  1  0  0  0  0
 13 14  2  0  0  0  0
 13 22  1  0  0  0  0
 13 32  1  0  0  0  0
 14 21  1  0  0  0  0
 14 33  1  0  0  0  0
 15 16  2  0  0  0  0
 15 34  1  0  0  0  0
 16 17  1  0  0  0  0
 17 18  1  0  0  0  0
 17 19  1  0  0  0  0
 17 20  1  0  0  0  0
M  END
>  <COMPND>
    title: molecule 1

$$$$
7AZ2_ligand0.pdb
 OpenBabel06042612053D

 34 36  0  0  0  0  0  0  0  0999 V2000
   21.2580   20.9660   -4.2330 C   0  0  0  0  0  0  0  0  0  0  0  0
   22.1260   21.2110   -3.0020 C   0  0  0  0  0  0  0  0  0  0  0  0
   23.2760   21.9760   -3.1060 C   0  0  0  0  0  0  0  0  0  0  0  0
   24.0610   22.1950   -1.9880 C   0  0  0  0  0  0  0  0  0  0  0  0
   23.6970   21.6540   -0.7650 C   0  0  0  0  0  0  0  0  0  0  0  0
   24.3760   22.7800    1.3820 C   0  0  0  0  0  0  0  0  0  0  0  0
   23.1880   23.7050    1.6500 C   0  0  0  0  0  0  0  0  0  0  0  0
   22.2980   24.0750    0.6520 C   0  0  0  0  0  0  0  0  0  0  0  0
   21.2350   24.9170    0.9380 C   0  0  0  0  0  0  0  0  0  0  0  0
   21.0660   25.4000    2.2250 C   0  0  0  0  0  0  0  0  0  0  0  0
   21.9560   25.0380    3.2230 C   0  0  0  0  0  0  0  0  0  0  0  0
   23.0150   24.1930    2.9350 C   0  0  0  0  0  0  0  0  0  0  0  0
   26.2850   21.8140    1.6760 C   0  0  0  0  0  0  0  0  0  0  0  0
   25.7250   21.3340    0.5330 C   0  0  0  0  0  0  0  0  0  0  0  0
   22.5400   20.8880   -0.6570 C   0  0  0  0  0  0  0  0  0  0  0  0
   22.1030   20.2690    0.6740 C   0  0  0  0  0  0  0  0  0  0  0  0
   21.7580   20.6690   -1.7820 C   0  0  0  0  0  0  0  0  0  0  0  0
   23.1730   19.7040    1.3080 F   0  0  0  0  0  0  0  0  0  0  0  0
   21.1610   19.3090    0.4270 F   0  0  0  0  0  0  0  0  0  0  0  0
   21.5600   21.2320    1.4730 F   0  0  0  0  0  0  0  0  0  0  0  0
   24.5670   21.9190    0.3670 N   0  0  0  0  0  0  0  0  0  0  0  0
   25.4500   22.6970    2.1870 N   0  0  0  0  0  0  0  0  0  0  0  0
   21.1920   19.8920   -4.4160 H   0  0  0  0  0  0  0  0  0  0  0  0
   20.2550   21.3090   -3.9800 H   0  0  0  0  0  0  0  0  0  0  0  0
   23.5650   22.4810   -3.9980 H   0  0  0  0  0  0  0  0  0  0  0  0
   24.9480   22.8050   -2.0620 H   0  0  0  0  0  0  0  0  0  0  0  0
   22.4160   23.7560   -0.3690 H   0  0  0  0  0  0  0  0  0  0  0  0
   20.5460   25.2070    0.1590 H   0  0  0  0  0  0  0  0  0  0  0  0
   20.2550   26.0730    2.4530 H   0  0  0  0  0  0  0  0  0  0  0  0
   21.8510   25.4240    4.2240 H   0  0  0  0  0  0  0  0  0  0  0  0
   23.6900   23.9130    3.7290 H   0  0  0  0  0  0  0  0  0  0  0  0
   27.2180   21.5740    2.1610 H   0  0  0  0  0  0  0  0  0  0  0  0
   26.0670   20.6110   -0.1760 H   0  0  0  0  0  0  0  0  0  0  0  0
   20.8520   20.0840   -1.7290 H   0  0  0  0  0  0  0  0  0  0  0  0
  1  2  1  0  0  0  0
  1 23  1  0  0  0  0
  1 24  1  0  0  0  0
  2  3  2  0  0  0  0
  2 17  1  0  0  0  0
  3  4  1  0  0  0  0
  3 25  1  0  0  0  0
  4  5  2  0  0  0  0
  4 26  1  0  0  0  0
  5 15  1  0  0  0  0
  5 21  1  0  0  0  0
  6  7  1  0  0  0  0
  6 21  1  0  0  0  0
  6 22  2  0  0  0  0
  7  8  2  0  0  0  0
  7 12  1  0  0  0  0
  8  9  1  0  0  0  0
  8 27  1  0  0  0  0
  9 10  2  0  0  0  0
  9 28  1  0  0  0  0
 10 11  1  0  0  0  0
 10 29  1  0  0  0  0
 11 12  2  0  0  0  0
 11 30  1  0  0  0  0
 12 31  1  0  0  0  0
 13 14  2  0  0  0  0
 13 22  1  0  0  0  0
 13 32  1  0  0  0  0
 14 21  1  0  0  0  0
 14 33  1  0  0  0  0
 15 16  1  0  0  0  0
 15 17  2  0  0  0  0
 16 18  1  0  0  0  0
 16 19  1  0  0  0  0
 16 20  1  0  0  0  0
 17 34  1  0  0  0  0
M  END
>  <COMPND>
    title: molecule 1

$$$$
7BDP_ligand0.pdb
 OpenBabel06042612053D

 30 32  0  0  0  0  0  0  0  0999 V2000
  -21.2210  -20.8750   -4.1320 C   0  0  0  0  0  0  0  0  0  0  0  0
  -22.0780  -21.2150   -2.9240 C   0  0  0  0  0  0  0  0  0  0  0  0
  -23.3180  -21.8600   -3.0420 C   0  0  0  0  0  0  0  0  0  0  0  0
  -24.0290  -22.1390   -1.8930 C   0  0  0  0  0  0  0  0  0  0  0  0
  -23.5160  -21.7720   -0.6520 C   0  0  0  0  0  0  0  0  0  0  0  0
  -23.8220  -22.6870    1.6570 C   0  0  0  0  0  0  0  0  0  0  0  0
  -22.4100  -23.1990    1.9440 C   0  0  0  0  0  0  0  0  0  0  0  0
  -21.7460  -22.7400    3.0750 C   0  0  0  0  0  0  0  0  0  0  0  0
  -20.4530  -23.1690    3.3630 C   0  0  0  0  0  0  0  0  0  0  0  0
  -19.8320  -24.0860    2.5120 C   0  0  0  0  0  0  0  0  0  0  0  0
  -20.5010  -24.5430    1.3840 C   0  0  0  0  0  0  0  0  0  0  0  0
  -21.7860  -24.1010    1.0960 C   0  0  0  0  0  0  0  0  0  0  0  0
  -25.9110  -22.2200    1.9460 C   0  0  0  0  0  0  0  0  0  0  0  0
  -25.5430  -21.7860    0.7060 C   0  0  0  0  0  0  0  0  0  0  0  0
  -22.2910  -21.1320   -0.5490 C   0  0  0  0  0  0  0  0  0  0  0  0
  -21.5780  -20.8580   -1.7000 C   0  0  0  0  0  0  0  0  0  0  0  0
  -24.2730  -22.0710    0.5480 N   0  0  0  0  0  0  0  0  0  0  0  0
  -24.8540  -22.7720    2.5140 N   0  0  0  0  0  0  0  0  0  0  0  0
  -20.0030  -20.0330   -1.6350 Cl  0  0  0  0  0  0  0  0  0  0  0  0
  -21.2510  -19.8060   -4.3410 H   0  0  0  0  0  0  0  0  0  0  0  0
  -20.1850  -21.1370   -3.9180 H   0  0  0  0  0  0  0  0  0  0  0  0
  -23.7320  -22.1620   -3.9750 H   0  0  0  0  0  0  0  0  0  0  0  0
  -24.9760  -22.6500   -1.9590 H   0  0  0  0  0  0  0  0  0  0  0  0
  -22.2850  -22.0010    3.6600 H   0  0  0  0  0  0  0  0  0  0  0  0
  -18.7860  -24.3200    2.6440 H   0  0  0  0  0  0  0  0  0  0  0  0
  -20.0140  -25.2170    0.6980 H   0  0  0  0  0  0  0  0  0  0  0  0
  -22.2950  -24.4590    0.2130 H   0  0  0  0  0  0  0  0  0  0  0  0
  -26.8680  -22.1660    2.4440 H   0  0  0  0  0  0  0  0  0  0  0  0
  -26.1270  -21.2870   -0.0540 H   0  0  0  0  0  0  0  0  0  0  0  0
  -21.8970  -20.8420    0.4140 H   0  0  0  0  0  0  0  0  0  0  0  0
  1  2  1  0  0  0  0
  1 20  1  0  0  0  0
  1 21  1  0  0  0  0
  2  3  2  0  0  0  0
  2 16  1  0  0  0  0
  3  4  1  0  0  0  0
  3 22  1  0  0  0  0
  4  5  2  0  0  0  0
  4 23  1  0  0  0  0
  5 15  1  0  0  0  0
  5 17  1  0  0  0  0
  6  7  1  0  0  0  0
  6 17  1  0  0  0  0
  6 18  2  0  0  0  0
  7  8  2  0  0  0  0
  7 12  1  0  0  0  0
  8  9  1  0  0  0  0
  8 24  1  0  0  0  0
  9 10  2  0  0  0  0
 10 11  1  0  0  0  0
 10 25  1  0  0  0  0
 11 12  2  0  0  0  0
 11 26  1  0  0  0  0
 12 27  1  0  0  0  0
 13 14  2  0  0  0  0
 13 18  1  0  0  0  0
 13 28  1  0  0  0  0
 14 17  1  0  0  0  0
 14 29  1  0  0  0  0
 15 16  2  0  0  0  0
 15 30  1  0  0  0  0
 16 19  1  0  0  0  0
M  END
>  <COMPND>
    title: molecule 1

$$$$
7BDT_ligand0.pdb
 OpenBabel06042612053D

 31 33  0  0  0  0  0  0  0  0999 V2000
  -21.3660  -20.7940   -4.3310 C   0  0  0  0  0  0  0  0  0  0  0  0
  -22.2230  -21.1690   -3.1360 C   0  0  0  0  0  0  0  0  0  0  0  0
  -21.6780  -20.8690   -1.9020 C   0  0  0  0  0  0  0  0  0  0  0  0
  -22.4080  -21.1810   -0.7780 C   0  0  0  0  0  0  0  0  0  0  0  0
  -23.5050  -21.7810   -3.2700 C   0  0  0  0  0  0  0  0  0  0  0  0
  -24.1940  -22.0920   -2.1510 C   0  0  0  0  0  0  0  0  0  0  0  0
  -23.6440  -21.7910   -0.8930 C   0  0  0  0  0  0  0  0  0  0  0  0
  -23.8710  -22.8160    1.3990 C   0  0  0  0  0  0  0  0  0  0  0  0
  -22.5050  -23.4760    1.5670 C   0  0  0  0  0  0  0  0  0  0  0  0
  -21.9140  -24.1990    0.5420 C   0  0  0  0  0  0  0  0  0  0  0  0
  -20.6690  -24.7900    0.7160 C   0  0  0  0  0  0  0  0  0  0  0  0
  -20.0020  -24.6750    1.9260 C   0  0  0  0  0  0  0  0  0  0  0  0
  -20.6060  -23.9730    2.9510 C   0  0  0  0  0  0  0  0  0  0  0  0
  -21.8460  -23.3700    2.7770 C   0  0  0  0  0  0  0  0  0  0  0  0
  -25.8740  -22.1980    1.8760 C   0  0  0  0  0  0  0  0  0  0  0  0
  -25.5690  -21.7220    0.6350 C   0  0  0  0  0  0  0  0  0  0  0  0
  -24.3460  -22.1000    0.3480 N   0  0  0  0  0  0  0  0  0  0  0  0
  -24.8340  -22.8670    2.3330 N   0  0  0  0  0  0  0  0  0  0  0  0
  -19.9180  -20.0120   -1.7020 Br  0  0  0  0  0  0  0  0  0  0  0  0
  -21.5450  -19.7620   -4.6290 H   0  0  0  0  0  0  0  0  0  0  0  0
  -20.3100  -20.8870   -4.0880 H   0  0  0  0  0  0  0  0  0  0  0  0
  -22.0060  -20.9460    0.1970 H   0  0  0  0  0  0  0  0  0  0  0  0
  -24.0040  -21.9220   -4.1900 H   0  0  0  0  0  0  0  0  0  0  0  0
  -25.1590  -22.5600   -2.2160 H   0  0  0  0  0  0  0  0  0  0  0  0
  -22.4270  -24.3140   -0.4020 H   0  0  0  0  0  0  0  0  0  0  0  0
  -20.2230  -25.3530   -0.0870 H   0  0  0  0  0  0  0  0  0  0  0  0
  -19.0260  -25.0990    2.0860 H   0  0  0  0  0  0  0  0  0  0  0  0
  -20.0790  -23.8700    3.8770 H   0  0  0  0  0  0  0  0  0  0  0  0
  -22.3140  -22.8310    3.5880 H   0  0  0  0  0  0  0  0  0  0  0  0
  -26.7820  -22.1020    2.4540 H   0  0  0  0  0  0  0  0  0  0  0  0
  -26.1640  -21.1340   -0.0480 H   0  0  0  0  0  0  0  0  0  0  0  0
  1  2  1  0  0  0  0
  1 20  1  0  0  0  0
  1 21  1  0  0  0  0
  2  3  2  0  0  0  0
  2  5  1  0  0  0  0
  3  4  1  0  0  0  0
  3 19  1  0  0  0  0
  4  7  2  0  0  0  0
  4 22  1  0  0  0  0
  5  6  2  0  0  0  0
  5 23  1  0  0  0  0
  6  7  1  0  0  0  0
  6 24  1  0  0  0  0
  7 17  1  0  0  0  0
  8  9  1  0  0  0  0
  8 17  1  0  0  0  0
  8 18  2  0  0  0  0
  9 10  2  0  0  0  0
  9 14  1  0  0  0  0
 10 11  1  0  0  0  0
 10 25  1  0  0  0  0
 11 12  2  0  0  0  0
 11 26  1  0  0  0  0
 12 13  1  0  0  0  0
 12 27  1  0  0  0  0
 13 14  2  0  0  0  0
 13 28  1  0  0  0  0
 14 29  1  0  0  0  0
 15 16  2  0  0  0  0
 15 18  1  0  0  0  0
 15 30  1  0  0  0  0
 16 17  1  0  0  0  0
 16 31  1  0  0  0  0
M  END
>  <COMPND>
    title: molecule 1

$$$$
7BDY_ligand0.pdb
 OpenBabel06042612053D

 31 33  0  0  0  0  0  0  0  0999 V2000
  -21.2100  -21.3310   -4.6470 C   0  0  0  0  0  0  0  0  0  0  0  0
  -22.1290  -21.4100   -3.4000 C   0  0  0  0  0  0  0  0  0  0  0  0
  -23.3810  -21.9910   -3.5440 C   0  0  0  0  0  0  0  0  0  0  0  0
  -24.2550  -22.1060   -2.4850 C   0  0  0  0  0  0  0  0  0  0  0  0
  -21.7730  -20.9350   -2.1260 C   0  0  0  0  0  0  0  0  0  0  0  0
  -22.6650  -21.0590   -1.0570 C   0  0  0  0  0  0  0  0  0  0  0  0
  -23.9100  -21.6570   -1.2120 C   0  0  0  0  0  0  0  0  0  0  0  0
  -24.8710  -22.1770    1.1600 C   0  0  0  0  0  0  0  0  0  0  0  0
  -23.7490  -22.7350    2.0050 C   0  0  0  0  0  0  0  0  0  0  0  0
  -23.6460  -22.3720    3.3490 C   0  0  0  0  0  0  0  0  0  0  0  0
  -22.6320  -22.9090    4.1180 C   0  0  0  0  0  0  0  0  0  0  0  0
  -21.7480  -23.8060    3.5410 C   0  0  0  0  0  0  0  0  0  0  0  0
  -21.8710  -24.1650    2.2090 C   0  0  0  0  0  0  0  0  0  0  0  0
  -22.8780  -23.6370    1.4350 C   0  0  0  0  0  0  0  0  0  0  0  0
  -26.8760  -21.5680    0.7750 C   0  0  0  0  0  0  0  0  0  0  0  0
  -26.1340  -21.3880   -0.3450 C   0  0  0  0  0  0  0  0  0  0  0  0
  -24.5150  -21.4860    3.9340 F   0  0  0  0  0  0  0  0  0  0  0  0
  -24.9040  -21.7680   -0.1300 N   0  0  0  0  0  0  0  0  0  0  0  0
  -26.0980  -22.0620    1.6920 N   0  0  0  0  0  0  0  0  0  0  0  0
  -20.0490  -20.0920   -1.7590 Br  0  0  0  0  0  0  0  0  0  0  0  0
  -20.6340  -25.4130    1.4070 Br  0  0  0  0  0  0  0  0  0  0  0  0
  -21.5230  -20.2960   -4.8080 H   0  0  0  0  0  0  0  0  0  0  0  0
  -20.3010  -21.3020   -4.0550 H   0  0  0  0  0  0  0  0  0  0  0  0
  -23.5440  -22.6180   -4.3820 H   0  0  0  0  0  0  0  0  0  0  0  0
  -25.1640  -22.6570   -2.5960 H   0  0  0  0  0  0  0  0  0  0  0  0
  -22.3830  -20.6770   -0.0870 H   0  0  0  0  0  0  0  0  0  0  0  0
  -22.5380  -22.6360    5.1590 H   0  0  0  0  0  0  0  0  0  0  0  0
  -20.9500  -24.2160    4.0950 H   0  0  0  0  0  0  0  0  0  0  0  0
  -22.9840  -23.9340    0.4010 H   0  0  0  0  0  0  0  0  0  0  0  0
  -27.5910  -20.9030    1.1960 H   0  0  0  0  0  0  0  0  0  0  0  0
  -26.4040  -20.9230   -1.2710 H   0  0  0  0  0  0  0  0  0  0  0  0
  1  2  1  0  0  0  0
  1 22  1  0  0  0  0
  1 23  1  0  0  0  0
  2  3  2  0  0  0  0
  2  5  1  0  0  0  0
  3  4  1  0  0  0  0
  3 24  1  0  0  0  0
  4  7  2  0  0  0  0
  4 25  1  0  0  0  0
  5  6  2  0  0  0  0
  5 20  1  0  0  0  0
  6  7  1  0  0  0  0
  6 26  1  0  0  0  0
  7 18  1  0  0  0  0
  8  9  1  0  0  0  0
  8 18  1  0  0  0  0
  8 19  2  0  0  0  0
  9 10  2  0  0  0  0
  9 14  1  0  0  0  0
 10 11  1  0  0  0  0
 10 17  1  0  0  0  0
 11 12  2  0  0  0  0
 11 27  1  0  0  0  0
 12 13  1  0  0  0  0
 12 28  1  0  0  0  0
 13 14  2  0  0  0  0
 13 21  1  0  0  0  0
 14 29  1  0  0  0  0
 15 16  2  0  0  0  0
 15 19  1  0  0  0  0
 15 30  1  0  0  0  0
 16 18  1  0  0  0  0
 16 31  1  0  0  0  0
M  END
>  <COMPND>
    title: molecule 1

$$$$
7BFW_ligand0.pdb
 OpenBabel06042612053D

 31 33  0  0  0  0  0  0  0  0999 V2000
  -20.8910   20.9410    4.3680 C   0  0  0  0  0  0  0  0  0  0  0  0
  -21.7130   21.3430    3.1470 C   0  0  0  0  0  0  0  0  0  0  0  0
  -22.9120   22.0070    3.3080 C   0  0  0  0  0  0  0  0  0  0  0  0
  -23.6530   22.3690    2.1870 C   0  0  0  0  0  0  0  0  0  0  0  0
  -21.2610   21.0400    1.8890 C   0  0  0  0  0  0  0  0  0  0  0  0
  -21.9840   21.3880    0.7680 C   0  0  0  0  0  0  0  0  0  0  0  0
  -23.1760   22.0660    0.9160 C   0  0  0  0  0  0  0  0  0  0  0  0
  -23.3550   22.9670   -1.4090 C   0  0  0  0  0  0  0  0  0  0  0  0
  -21.9320   23.5010   -1.6170 C   0  0  0  0  0  0  0  0  0  0  0  0
  -21.4520   24.5090   -0.7960 C   0  0  0  0  0  0  0  0  0  0  0  0
  -20.1690   25.0030   -0.9720 C   0  0  0  0  0  0  0  0  0  0  0  0
  -19.3660   24.4930   -1.9790 C   0  0  0  0  0  0  0  0  0  0  0  0
  -19.8450   23.4850   -2.8030 C   0  0  0  0  0  0  0  0  0  0  0  0
  -21.1300   22.9920   -2.6290 C   0  0  0  0  0  0  0  0  0  0  0  0
  -25.4130   22.4910   -1.8160 C   0  0  0  0  0  0  0  0  0  0  0  0
  -25.1270   22.0660   -0.5560 C   0  0  0  0  0  0  0  0  0  0  0  0
  -22.2460   25.0090    0.1960 F   0  0  0  0  0  0  0  0  0  0  0  0
  -18.1030   24.9780   -2.1550 F   0  0  0  0  0  0  0  0  0  0  0  0
  -23.8780   22.3800   -0.3140 N   0  0  0  0  0  0  0  0  0  0  0  0
  -24.3280   23.0390   -2.3290 N   0  0  0  0  0  0  0  0  0  0  0  0
  -19.5840   20.1050    1.7540 Br  0  0  0  0  0  0  0  0  0  0  0  0
  -21.0590   19.9450    4.7500 H   0  0  0  0  0  0  0  0  0  0  0  0
  -19.8230   21.0630    4.1940 H   0  0  0  0  0  0  0  0  0  0  0  0
  -23.3660   22.2050    4.2290 H   0  0  0  0  0  0  0  0  0  0  0  0
  -24.6020   22.8700    2.3020 H   0  0  0  0  0  0  0  0  0  0  0  0
  -21.6160   21.1130   -0.2090 H   0  0  0  0  0  0  0  0  0  0  0  0
  -19.8190   25.7880   -0.3250 H   0  0  0  0  0  0  0  0  0  0  0  0
  -19.2290   23.1220   -3.6060 H   0  0  0  0  0  0  0  0  0  0  0  0
  -21.5030   22.2150   -3.2810 H   0  0  0  0  0  0  0  0  0  0  0  0
  -26.3360   22.4300   -2.3760 H   0  0  0  0  0  0  0  0  0  0  0  0
  -25.7530   21.5850    0.1780 H   0  0  0  0  0  0  0  0  0  0  0  0
  1  2  1  0  0  0  0
  1 22  1  0  0  0  0
  1 23  1  0  0  0  0
  2  3  2  0  0  0  0
  2  5  1  0  0  0  0
  3  4  1  0  0  0  0
  3 24  1  0  0  0  0
  4  7  2  0  0  0  0
  4 25  1  0  0  0  0
  5  6  2  0  0  0  0
  5 21  1  0  0  0  0
  6  7  1  0  0  0  0
  6 26  1  0  0  0  0
  7 19  1  0  0  0  0
  8  9  1  0  0  0  0
  8 19  1  0  0  0  0
  8 20  2  0  0  0  0
  9 10  2  0  0  0  0
  9 14  1  0  0  0  0
 10 11  1  0  0  0  0
 10 17  1  0  0  0  0
 11 12  2  0  0  0  0
 11 27  1  0  0  0  0
 12 13  1  0  0  0  0
 12 18  1  0  0  0  0
 13 14  2  0  0  0  0
 13 28  1  0  0  0  0
 14 29  1  0  0  0  0
 15 16  2  0  0  0  0
 15 20  1  0  0  0  0
 15 30  1  0  0  0  0
 16 19  1  0  0  0  0
 16 31  1  0  0  0  0
M  END
>  <COMPND>
    title: molecule 1

$$$$
7BG3_ligand0.pdb
 OpenBabel06042612053D

 31 33  0  0  0  0  0  0  0  0999 V2000
   24.6330   23.0260    2.4520 N   0  0  0  0  0  0  0  0  0  0  0  0
   20.5250   24.9990    0.8190 C   0  0  0  0  0  0  0  0  0  0  0  0
   19.6850   24.6480    1.8660 C   0  0  0  0  0  0  0  0  0  0  0  0
   20.1170   23.7360    2.8140 C   0  0  0  0  0  0  0  0  0  0  0  0
   22.2360   23.5360    1.6750 C   0  0  0  0  0  0  0  0  0  0  0  0
   21.3310   21.0220   -4.3550 C   0  0  0  0  0  0  0  0  0  0  0  0
   22.0920   21.3470   -3.0720 C   0  0  0  0  0  0  0  0  0  0  0  0
   23.3300   21.9980   -3.1190 C   0  0  0  0  0  0  0  0  0  0  0  0
   23.9820   22.2830   -1.9380 C   0  0  0  0  0  0  0  0  0  0  0  0
   21.5190   20.9830   -1.8600 C   0  0  0  0  0  0  0  0  0  0  0  0
   22.1870   21.2700   -0.6790 C   0  0  0  0  0  0  0  0  0  0  0  0
   23.4150   21.9140   -0.7230 C   0  0  0  0  0  0  0  0  0  0  0  0
   23.6450   22.9370    1.5420 C   0  0  0  0  0  0  0  0  0  0  0  0
   21.3870   23.1840    2.7200 C   0  0  0  0  0  0  0  0  0  0  0  0
   21.7960   24.4470    0.7250 C   0  0  0  0  0  0  0  0  0  0  0  0
   25.6920   22.3890    1.9750 C   0  0  0  0  0  0  0  0  0  0  0  0
   25.3690   21.9020    0.7430 C   0  0  0  0  0  0  0  0  0  0  0  0
   24.1260   22.2330    0.4990 N   0  0  0  0  0  0  0  0  0  0  0  0
   19.8000   20.0740   -1.7560 Br  0  0  0  0  0  0  0  0  0  0  0  0
   21.9330   21.9180    4.0870 Br  0  0  0  0  0  0  0  0  0  0  0  0
   20.1950   25.7060    0.0740 H   0  0  0  0  0  0  0  0  0  0  0  0
   18.6880   25.0380    1.9630 H   0  0  0  0  0  0  0  0  0  0  0  0
   19.4630   23.4480    3.6230 H   0  0  0  0  0  0  0  0  0  0  0  0
   21.3010   19.9710   -4.5870 H   0  0  0  0  0  0  0  0  0  0  0  0
   20.2960   21.2790   -4.1320 H   0  0  0  0  0  0  0  0  0  0  0  0
   23.7990   22.2970   -4.0260 H   0  0  0  0  0  0  0  0  0  0  0  0
   24.9310   22.7960   -1.9600 H   0  0  0  0  0  0  0  0  0  0  0  0
   21.7560   20.9830    0.2690 H   0  0  0  0  0  0  0  0  0  0  0  0
   22.4440   24.7340   -0.0910 H   0  0  0  0  0  0  0  0  0  0  0  0
   26.6190   22.3280    2.5260 H   0  0  0  0  0  0  0  0  0  0  0  0
   25.9680   21.3440    0.0370 H   0  0  0  0  0  0  0  0  0  0  0  0
  1 13  2  0  0  0  0
  1 16  1  0  0  0  0
  2  3  2  0  0  0  0
  2 15  1  0  0  0  0
  2 21  1  0  0  0  0
  3  4  1  0  0  0  0
  3 22  1  0  0  0  0
  4 14  2  0  0  0  0
  4 23  1  0  0  0  0
  5 13  1  0  0  0  0
  5 14  1  0  0  0  0
  5 15  2  0  0  0  0
  6  7  1  0  0  0  0
  6 24  1  0  0  0  0
  6 25  1  0  0  0  0
  7  8  2  0  0  0  0
  7 10  1  0  0  0  0
  8  9  1  0  0  0  0
  8 26  1  0  0  0  0
  9 12  2  0  0  0  0
  9 27  1  0  0  0  0
 10 11  2  0  0  0  0
 10 19  1  0  0  0  0
 11 12  1  0  0  0  0
 11 28  1  0  0  0  0
 12 18  1  0  0  0  0
 13 18  1  0  0  0  0
 14 20  1  0  0  0  0
 15 29  1  0  0  0  0
 16 17  2  0  0  0  0
 16 30  1  0  0  0  0
 17 18  1  0  0  0  0
 17 31  1  0  0  0  0
M  END
>  <COMPND>
    title: molecule 1

$$$$
7BGQ_ligand0.pdb
 OpenBabel06042612053D

 34 36  0  0  0  0  0  0  0  0999 V2000
  -20.9380  -24.5890    1.8610 C   0  0  0  0  0  0  0  0  0  0  0  0
  -22.1860  -22.5110    3.2080 C   0  0  0  0  0  0  0  0  0  0  0  0
  -26.3390  -22.2780    1.8390 C   0  0  0  0  0  0  0  0  0  0  0  0
  -22.5820  -21.1470   -0.5070 C   0  0  0  0  0  0  0  0  0  0  0  0
  -20.2580  -19.6910   -0.3770 C   0  0  0  0  0  0  0  0  0  0  0  0
  -21.5010  -21.0300   -4.1340 C   0  0  0  0  0  0  0  0  0  0  0  0
  -22.3210  -21.3230   -2.8850 C   0  0  0  0  0  0  0  0  0  0  0  0
  -23.5210  -22.0100   -2.9810 C   0  0  0  0  0  0  0  0  0  0  0  0
  -24.2510  -22.2730   -1.8360 C   0  0  0  0  0  0  0  0  0  0  0  0
  -23.7850  -21.8400   -0.6020 C   0  0  0  0  0  0  0  0  0  0  0  0
  -24.2220  -22.6840    1.7270 C   0  0  0  0  0  0  0  0  0  0  0  0
  -22.8270  -23.1350    2.1430 C   0  0  0  0  0  0  0  0  0  0  0  0
  -22.2040  -24.1780    1.4780 C   0  0  0  0  0  0  0  0  0  0  0  0
  -20.2930  -23.9630    2.9160 C   0  0  0  0  0  0  0  0  0  0  0  0
  -20.9170  -22.9190    3.5950 C   0  0  0  0  0  0  0  0  0  0  0  0
  -25.8820  -21.8840    0.6190 C   0  0  0  0  0  0  0  0  0  0  0  0
  -21.8500  -20.8900   -1.6610 C   0  0  0  0  0  0  0  0  0  0  0  0
  -24.5970  -22.1290    0.5660 N   0  0  0  0  0  0  0  0  0  0  0  0
  -25.3120  -22.7660    2.5080 N   0  0  0  0  0  0  0  0  0  0  0  0
  -20.6280  -20.2000   -1.6280 O   0  0  0  0  0  0  0  0  0  0  0  0
  -20.4540  -25.4040    1.3480 H   0  0  0  0  0  0  0  0  0  0  0  0
  -22.6600  -21.6580    3.6740 H   0  0  0  0  0  0  0  0  0  0  0  0
  -27.3290  -22.2270    2.2670 H   0  0  0  0  0  0  0  0  0  0  0  0
  -22.2720  -20.8250    0.4750 H   0  0  0  0  0  0  0  0  0  0  0  0
  -19.2990  -19.1840   -0.4540 H   0  0  0  0  0  0  0  0  0  0  0  0
  -20.9800  -18.9870    0.0350 H   0  0  0  0  0  0  0  0  0  0  0  0
  -20.1330  -20.5200    0.2860 H   0  0  0  0  0  0  0  0  0  0  0  0
  -21.4860  -19.9490   -4.2760 H   0  0  0  0  0  0  0  0  0  0  0  0
  -20.4800  -21.3040   -3.8650 H   0  0  0  0  0  0  0  0  0  0  0  0
  -23.8890  -22.4010   -3.8990 H   0  0  0  0  0  0  0  0  0  0  0  0
  -25.1730  -22.8280   -1.9030 H   0  0  0  0  0  0  0  0  0  0  0  0
  -22.7310  -24.6590    0.6730 H   0  0  0  0  0  0  0  0  0  0  0  0
  -19.2630  -24.2080    3.1300 H   0  0  0  0  0  0  0  0  0  0  0  0
  -26.4030  -21.3990   -0.1880 H   0  0  0  0  0  0  0  0  0  0  0  0
  1 13  2  0  0  0  0
  1 14  1  0  0  0  0
  1 21  1  0  0  0  0
  2 12  2  0  0  0  0
  2 15  1  0  0  0  0
  2 22  1  0  0  0  0
  3 16  2  0  0  0  0
  3 19  1  0  0  0  0
  3 23  1  0  0  0  0
  4 10  2  0  0  0  0
  4 17  1  0  0  0  0
  4 24  1  0  0  0  0
  5 20  1  0  0  0  0
  5 25  1  0  0  0  0
  5 26  1  0  0  0  0
  5 27  1  0  0  0  0
  6  7  1  0  0  0  0
  6 28  1  0  0  0  0
  6 29  1  0  0  0  0
  7  8  1  0  0  0  0
  7 17  2  0  0  0  0
  8  9  2  0  0  0  0
  8 30  1  0  0  0  0
  9 10  1  0  0  0  0
  9 31  1  0  0  0  0
 10 18  1  0  0  0  0
 11 12  1  0  0  0  0
 11 18  1  0  0  0  0
 11 19  2  0  0  0  0
 12 13  1  0  0  0  0
 13 32  1  0  0  0  0
 14 15  2  0  0  0  0
 14 33  1  0  0  0  0
 16 18  1  0  0  0  0
 16 34  1  0  0  0  0
 17 20  1  0  0  0  0
M  END
>  <COMPND>
    title: molecule 1

$$$$
7BGR_ligand0.pdb
 OpenBabel06042612053D

 34 36  0  0  0  0  0  0  0  0999 V2000
  -21.3670  -21.0260   -4.1050 C   0  0  0  0  0  0  0  0  0  0  0  0
  -22.2510  -21.2930   -2.8920 C   0  0  0  0  0  0  0  0  0  0  0  0
  -23.4010  -22.0560   -3.0270 C   0  0  0  0  0  0  0  0  0  0  0  0
  -24.2010  -22.2980   -1.9190 C   0  0  0  0  0  0  0  0  0  0  0  0
  -23.8520  -21.7740   -0.6820 C   0  0  0  0  0  0  0  0  0  0  0  0
  -24.4430  -22.7590    1.5560 C   0  0  0  0  0  0  0  0  0  0  0  0
  -23.1470  -23.4580    1.9360 C   0  0  0  0  0  0  0  0  0  0  0  0
  -22.1740  -23.7760    1.0010 C   0  0  0  0  0  0  0  0  0  0  0  0
  -21.0080  -24.3960    1.3940 C   0  0  0  0  0  0  0  0  0  0  0  0
  -20.8280  -24.7210    2.7190 C   0  0  0  0  0  0  0  0  0  0  0  0
  -21.8030  -24.4090    3.6540 C   0  0  0  0  0  0  0  0  0  0  0  0
  -22.9630  -23.7770    3.2660 C   0  0  0  0  0  0  0  0  0  0  0  0
  -26.4730  -22.0590    1.7270 C   0  0  0  0  0  0  0  0  0  0  0  0
  -25.9500  -21.6180    0.5470 C   0  0  0  0  0  0  0  0  0  0  0  0
  -22.6960  -21.0100   -0.5470 C   0  0  0  0  0  0  0  0  0  0  0  0
  -21.8970  -20.7720   -1.6590 C   0  0  0  0  0  0  0  0  0  0  0  0
  -20.6210  -19.9410   -1.5290 C   0  0  0  0  0  0  0  0  0  0  0  0
  -24.7160  -22.0430    0.4550 N   0  0  0  0  0  0  0  0  0  0  0  0
  -25.5360  -22.7570    2.3410 N   0  0  0  0  0  0  0  0  0  0  0  0
  -21.2490  -19.9490   -4.2310 H   0  0  0  0  0  0  0  0  0  0  0  0
  -20.3830  -21.4300   -3.8650 H   0  0  0  0  0  0  0  0  0  0  0  0
  -23.6730  -22.5310   -3.9450 H   0  0  0  0  0  0  0  0  0  0  0  0
  -25.0920  -22.8950   -2.0090 H   0  0  0  0  0  0  0  0  0  0  0  0
  -22.2990  -23.5780   -0.0480 H   0  0  0  0  0  0  0  0  0  0  0  0
  -20.2300  -24.5910    0.6760 H   0  0  0  0  0  0  0  0  0  0  0  0
  -19.9090  -25.2000    2.9870 H   0  0  0  0  0  0  0  0  0  0  0  0
  -21.7150  -24.6760    4.6890 H   0  0  0  0  0  0  0  0  0  0  0  0
  -23.7120  -23.5460    4.0090 H   0  0  0  0  0  0  0  0  0  0  0  0
  -27.4510  -21.9200    2.1630 H   0  0  0  0  0  0  0  0  0  0  0  0
  -26.3930  -21.0290   -0.2360 H   0  0  0  0  0  0  0  0  0  0  0  0
  -22.4280  -20.6070    0.4190 H   0  0  0  0  0  0  0  0  0  0  0  0
  -20.4890  -19.5780   -0.5090 H   0  0  0  0  0  0  0  0  0  0  0  0
  -19.7480  -20.5350   -1.7860 H   0  0  0  0  0  0  0  0  0  0  0  0
  -20.6400  -19.0780   -2.1910 H   0  0  0  0  0  0  0  0  0  0  0  0
  1  2  1  0  0  0  0
  1 20  1  0  0  0  0
  1 21  1  0  0  0  0
  2  3  2  0  0  0  0
  2 16  1  0  0  0  0
  3  4  1  0  0  0  0
  3 22  1  0  0  0  0
  4  5  2  0  0  0  0
  4 23  1  0  0  0  0
  5 15  1  0  0  0  0
  5 18  1  0  0  0  0
  6  7  1  0  0  0  0
  6 18  1  0  0  0  0
  6 19  2  0  0  0  0
  7  8  2  0  0  0  0
  7 12  1  0  0  0  0
  8  9  1  0  0  0  0
  8 24  1  0  0  0  0
  9 10  2  0  0  0  0
  9 25  1  0  0  0  0
 10 11  1  0  0  0  0
 10 26  1  0  0  0  0
 11 12  2  0  0  0  0
 11 27  1  0  0  0  0
 12 28  1  0  0  0  0
 13 14  2  0  0  0  0
 13 19  1  0  0  0  0
 13 29  1  0  0  0  0
 14 18  1  0  0  0  0
 14 30  1  0  0  0  0
 15 16  2  0  0  0  0
 15 31  1  0  0  0  0
 16 17  1  0  0  0  0
 17 32  1  0  0  0  0
 17 33  1  0  0  0  0
 17 34  1  0  0  0  0
M  END
>  <COMPND>
    title: molecule 1

$$$$
7BGV_ligand0.pdb
 OpenBabel06042612053D

 35 37  0  0  0  0  0  0  0  0999 V2000
  -21.4300  -21.0960   -4.4520 C   0  0  0  0  0  0  0  0  0  0  0  0
  -22.1340  -21.3690   -3.1230 C   0  0  0  0  0  0  0  0  0  0  0  0
  -23.2220  -22.2270   -3.0720 C   0  0  0  0  0  0  0  0  0  0  0  0
  -23.8540  -22.4700   -1.8620 C   0  0  0  0  0  0  0  0  0  0  0  0
  -23.4000  -21.8540   -0.7050 C   0  0  0  0  0  0  0  0  0  0  0  0
  -23.5190  -22.6150    1.6730 C   0  0  0  0  0  0  0  0  0  0  0  0
  -22.0530  -22.9970    1.8840 C   0  0  0  0  0  0  0  0  0  0  0  0
  -21.4070  -23.8310    0.9870 C   0  0  0  0  0  0  0  0  0  0  0  0
  -20.0790  -24.1710    1.1880 C   0  0  0  0  0  0  0  0  0  0  0  0
  -19.3960  -23.6830    2.2890 C   0  0  0  0  0  0  0  0  0  0  0  0
  -20.0420  -22.8520    3.1880 C   0  0  0  0  0  0  0  0  0  0  0  0
  -21.3690  -22.5090    2.9870 C   0  0  0  0  0  0  0  0  0  0  0  0
  -25.6120  -22.2850    2.0610 C   0  0  0  0  0  0  0  0  0  0  0  0
  -25.3470  -21.9180    0.7760 C   0  0  0  0  0  0  0  0  0  0  0  0
  -22.3060  -21.0010   -0.7560 C   0  0  0  0  0  0  0  0  0  0  0  0
  -20.5220  -19.9390    0.3660 C   0  0  0  0  0  0  0  0  0  0  0  0
  -21.6790  -20.7540   -1.9680 C   0  0  0  0  0  0  0  0  0  0  0  0
  -24.0720  -22.1180    0.5550 N   0  0  0  0  0  0  0  0  0  0  0  0
  -24.4840  -22.7070    2.6010 N   0  0  0  0  0  0  0  0  0  0  0  0
  -21.8510  -20.3720    0.4110 O   0  0  0  0  0  0  0  0  0  0  0  0
  -21.5280  -20.0370   -4.6940 H   0  0  0  0  0  0  0  0  0  0  0  0
  -20.3720  -21.2730   -4.2440 H   0  0  0  0  0  0  0  0  0  0  0  0
  -23.5970  -22.7370   -3.9410 H   0  0  0  0  0  0  0  0  0  0  0  0
  -24.7000  -23.1400   -1.8190 H   0  0  0  0  0  0  0  0  0  0  0  0
  -21.9560  -24.1990    0.1390 H   0  0  0  0  0  0  0  0  0  0  0  0
  -19.5800  -24.8040    0.4770 H   0  0  0  0  0  0  0  0  0  0  0  0
  -18.3700  -23.9720    2.4630 H   0  0  0  0  0  0  0  0  0  0  0  0
  -19.5300  -22.6080    4.1020 H   0  0  0  0  0  0  0  0  0  0  0  0
  -21.8800  -21.8860    3.7060 H   0  0  0  0  0  0  0  0  0  0  0  0
  -26.5380  -22.2640    2.6150 H   0  0  0  0  0  0  0  0  0  0  0  0
  -26.0060  -21.5250    0.0160 H   0  0  0  0  0  0  0  0  0  0  0  0
  -20.0970  -20.0420    1.3630 H   0  0  0  0  0  0  0  0  0  0  0  0
  -19.8480  -20.4450   -0.3000 H   0  0  0  0  0  0  0  0  0  0  0  0
  -20.4970  -18.8770    0.1190 H   0  0  0  0  0  0  0  0  0  0  0  0
  -20.8650  -20.0550   -2.0800 H   0  0  0  0  0  0  0  0  0  0  0  0
  1  2  1  0  0  0  0
  1 21  1  0  0  0  0
  1 22  1  0  0  0  0
  2  3  2  0  0  0  0
  2 17  1  0  0  0  0
  3  4  1  0  0  0  0
  3 23  1  0  0  0  0
  4  5  2  0  0  0  0
  4 24  1  0  0  0  0
  5 15  1  0  0  0  0
  5 18  1  0  0  0  0
  6  7  1  0  0  0  0
  6 18  1  0  0  0  0
  6 19  2  0  0  0  0
  7  8  2  0  0  0  0
  7 12  1  0  0  0  0
  8  9  1  0  0  0  0
  8 25  1  0  0  0  0
  9 10  2  0  0  0  0
  9 26  1  0  0  0  0
 10 11  1  0  0  0  0
 10 27  1  0  0  0  0
 11 12  2  0  0  0  0
 11 28  1  0  0  0  0
 12 29  1  0  0  0  0
 13 14  2  0  0  0  0
 13 19  1  0  0  0  0
 13 30  1  0  0  0  0
 14 18  1  0  0  0  0
 14 31  1  0  0  0  0
 15 17  2  0  0  0  0
 15 20  1  0  0  0  0
 16 20  1  0  0  0  0
 16 32  1  0  0  0  0
 16 33  1  0  0  0  0
 16 34  1  0  0  0  0
 17 35  1  0  0  0  0
M  END
>  <COMPND>
    title: molecule 1

$$$$
7BGW_ligand0.pdb
 OpenBabel06042612053D

 37 40  0  0  0  0  0  0  0  0999 V2000
   21.3140   20.9290   -4.0720 C   0  0  0  0  0  0  0  0  0  0  0  0
   22.2160   21.1800   -2.8660 C   0  0  0  0  0  0  0  0  0  0  0  0
   23.4050   21.8780   -3.0430 C   0  0  0  0  0  0  0  0  0  0  0  0
   24.2380   22.1190   -1.9500 C   0  0  0  0  0  0  0  0  0  0  0  0
   23.8840   21.6620   -0.6840 C   0  0  0  0  0  0  0  0  0  0  0  0
   24.6390   22.7780    1.4620 C   0  0  0  0  0  0  0  0  0  0  0  0
   23.4640   23.7050    1.7880 C   0  0  0  0  0  0  0  0  0  0  0  0
   22.5710   24.1260    0.8130 C   0  0  0  0  0  0  0  0  0  0  0  0
   21.5220   24.9680    1.1450 C   0  0  0  0  0  0  0  0  0  0  0  0
   21.3640   25.4070    2.4500 C   0  0  0  0  0  0  0  0  0  0  0  0
   22.2560   24.9940    3.4260 C   0  0  0  0  0  0  0  0  0  0  0  0
   23.3040   24.1460    3.0950 C   0  0  0  0  0  0  0  0  0  0  0  0
   26.5660   21.8070    1.6680 C   0  0  0  0  0  0  0  0  0  0  0  0
   25.9570   21.3390    0.5400 C   0  0  0  0  0  0  0  0  0  0  0  0
   22.6570   20.9410   -0.4960 C   0  0  0  0  0  0  0  0  0  0  0  0
   21.8390   20.7040   -1.5710 C   0  0  0  0  0  0  0  0  0  0  0  0
   20.6140   19.9850   -1.3950 C   0  0  0  0  0  0  0  0  0  0  0  0
   20.2550   19.5250   -0.1270 C   0  0  0  0  0  0  0  0  0  0  0  0
   21.0920   19.7630    0.9670 C   0  0  0  0  0  0  0  0  0  0  0  0
   22.2860   20.4660    0.8000 C   0  0  0  0  0  0  0  0  0  0  0  0
   24.7920   21.9270    0.4240 N   0  0  0  0  0  0  0  0  0  0  0  0
   25.7490   22.6850    2.2240 N   0  0  0  0  0  0  0  0  0  0  0  0
   21.1650   19.8550   -4.1940 H   0  0  0  0  0  0  0  0  0  0  0  0
   20.3410   21.3560   -3.8280 H   0  0  0  0  0  0  0  0  0  0  0  0
   23.6870   22.3050   -3.9780 H   0  0  0  0  0  0  0  0  0  0  0  0
   25.1540   22.6730   -2.0800 H   0  0  0  0  0  0  0  0  0  0  0  0
   22.6800   23.8360   -0.2190 H   0  0  0  0  0  0  0  0  0  0  0  0
   20.8230   25.2840    0.3850 H   0  0  0  0  0  0  0  0  0  0  0  0
   20.5230   26.0270    2.7060 H   0  0  0  0  0  0  0  0  0  0  0  0
   22.1400   25.3230    4.4470 H   0  0  0  0  0  0  0  0  0  0  0  0
   23.9820   23.8260    3.8720 H   0  0  0  0  0  0  0  0  0  0  0  0
   27.5200   21.5590    2.1090 H   0  0  0  0  0  0  0  0  0  0  0  0
   26.2760   20.6310   -0.1980 H   0  0  0  0  0  0  0  0  0  0  0  0
   19.9500   19.7740   -2.2160 H   0  0  0  0  0  0  0  0  0  0  0  0
   19.3310   18.9880    0.0150 H   0  0  0  0  0  0  0  0  0  0  0  0
   20.8210   19.3880    1.9420 H   0  0  0  0  0  0  0  0  0  0  0  0
   22.9160   20.6310    1.6600 H   0  0  0  0  0  0  0  0  0  0  0  0
  1  2  1  0  0  0  0
  1 23  1  0  0  0  0
  1 24  1  0  0  0  0
  2  3  2  0  0  0  0
  2 16  1  0  0  0  0
  3  4  1  0  0  0  0
  3 25  1  0  0  0  0
  4  5  2  0  0  0  0
  4 26  1  0  0  0  0
  5 15  1  0  0  0  0
  5 21  1  0  0  0  0
  6  7  1  0  0  0  0
  6 21  1  0  0  0  0
  6 22  2  0  0  0  0
  7  8  2  0  0  0  0
  7 12  1  0  0  0  0
  8  9  1  0  0  0  0
  8 27  1  0  0  0  0
  9 10  2  0  0  0  0
  9 28  1  0  0  0  0
 10 11  1  0  0  0  0
 10 29  1  0  0  0  0
 11 12  2  0  0  0  0
 11 30  1  0  0  0  0
 12 31  1  0  0  0  0
 13 14  2  0  0  0  0
 13 22  1  0  0  0  0
 13 32  1  0  0  0  0
 14 21  1  0  0  0  0
 14 33  1  0  0  0  0
 15 16  2  0  0  0  0
 15 20  1  0  0  0  0
 16 17  1  0  0  0  0
 17 18  2  0  0  0  0
 17 34  1  0  0  0  0
 18 19  1  0  0  0  0
 18 35  1  0  0  0  0
 19 20  2  0  0  0  0
 19 36  1  0  0  0  0
 20 37  1  0  0  0  0
M  END
>  <COMPND>
    title: molecule 1

$$$$
7EG0_ligand0.pdb
 OpenBabel06042612053D

 23 25  0  0  0  0  0  0  0  0999 V2000
  124.2330  124.6210   79.6800 C   0  0  0  0  0  0  0  0  0  0  0  0
  126.6090  125.4310   80.1350 C   0  0  0  0  0  0  0  0  0  0  0  0
  124.8020  126.7660   80.7750 C   0  0  0  0  0  0  0  0  0  0  0  0
  122.8170  125.1120   79.9020 C   0  0  0  0  0  0  0  0  0  0  0  0
  122.5640  126.3580   80.5280 C   0  0  0  0  0  0  0  0  0  0  0  0
  127.0610  126.7300   80.8010 C   0  0  0  0  0  0  0  0  0  0  0  0
  121.7420  124.3160   79.4810 C   0  0  0  0  0  0  0  0  0  0  0  0
  121.2400  126.7720   80.7110 C   0  0  0  0  0  0  0  0  0  0  0  0
  120.4300  124.7450   79.6730 C   0  0  0  0  0  0  0  0  0  0  0  0
  120.1800  125.9700   80.2870 C   0  0  0  0  0  0  0  0  0  0  0  0
  122.0400  122.7820   78.7120 Cl  0  0  0  0  0  0  0  0  0  0  0  0
  119.0590  123.8130   79.1770 Cl  0  0  0  0  0  0  0  0  0  0  0  0
  128.2230  127.0530   80.9880 O   0  0  0  0  0  0  0  0  0  0  0  0
  125.1730  125.5870   80.1870 N   0  0  0  0  0  0  0  0  0  0  0  0
  125.9250  127.4450   81.1400 N   0  0  0  0  0  0  0  0  0  0  0  0
  123.6040  127.2090   80.9770 N   0  0  0  0  0  0  0  0  0  0  0  0
  124.3980  124.5010   78.6110 H   0  0  0  0  0  0  0  0  0  0  0  0
  124.3880  123.6600   80.1710 H   0  0  0  0  0  0  0  0  0  0  0  0
  126.9110  124.5500   80.7000 H   0  0  0  0  0  0  0  0  0  0  0  0
  126.9660  125.3610   79.1070 H   0  0  0  0  0  0  0  0  0  0  0  0
  121.0300  127.7190   81.1870 H   0  0  0  0  0  0  0  0  0  0  0  0
  119.1630  126.3030   80.4370 H   0  0  0  0  0  0  0  0  0  0  0  0
  123.3910  128.1250   81.3490 H   0  0  0  0  0  0  0  0  0  0  0  0
  1  4  1  0  0  0  0
  1 14  1  0  0  0  0
  1 17  1  0  0  0  0
  1 18  1  0  0  0  0
  2  6  1  0  0  0  0
  2 14  1  0  0  0  0
  2 19  1  0  0  0  0
  2 20  1  0  0  0  0
  3 14  1  0  0  0  0
  3 15  2  0  0  0  0
  3 16  1  0  0  0  0
  4  5  2  0  0  0  0
  4  7  1  0  0  0  0
  5  8  1  0  0  0  0
  5 16  1  0  0  0  0
  6 13  2  0  0  0  0
  6 15  1  0  0  0  0
  7  9  2  0  0  0  0
  7 11  1  0  0  0  0
  8 10  2  0  0  0  0
  8 21  1  0  0  0  0
  9 10  1  0  0  0  0
  9 12  1  0  0  0  0
 10 22  1  0  0  0  0
 16 23  1  0  0  0  0
M  END
>  <COMPND>
    title: molecule 1

$$$$
7M2K_ligand0.pdb
 OpenBabel06042612053D

 59 61  0  0  0  0  0  0  0  0999 V2000
  -72.2850  -20.0820   29.7720 C   0  0  0  0  0  0  0  0  0  0  0  0
  -72.3930  -18.6910   29.0510 C   0  0  0  0  0  0  0  0  0  0  0  0
  -71.1010  -17.9150   29.3260 C   0  0  0  0  0  0  0  0  0  0  0  0
  -70.9230  -17.7370   30.8800 C   0  0  0  0  0  0  0  0  0  0  0  0
  -70.8340  -19.1620   31.5440 C   0  0  0  0  0  0  0  0  0  0  0  0
  -71.2010  -16.5520   28.6120 C   0  0  0  0  0  0  0  0  0  0  0  0
  -70.0880  -15.6940   28.6190 C   0  0  0  0  0  0  0  0  0  0  0  0
  -69.0370  -15.8750   27.7310 C   0  0  0  0  0  0  0  0  0  0  0  0
  -67.9150  -15.0610   27.7260 C   0  0  0  0  0  0  0  0  0  0  0  0
  -70.0110  -14.5950   29.4490 C   0  0  0  0  0  0  0  0  0  0  0  0
  -68.9090  -13.7410   29.4210 C   0  0  0  0  0  0  0  0  0  0  0  0
  -67.8800  -13.9350   28.5130 C   0  0  0  0  0  0  0  0  0  0  0  0
  -66.7640  -13.1010   28.5050 C   0  0  0  0  0  0  0  0  0  0  0  0
  -65.5420  -13.5760   27.9870 C   0  0  0  0  0  0  0  0  0  0  0  0
  -64.4360  -12.7200   28.0290 C   0  0  0  0  0  0  0  0  0  0  0  0
  -64.5270  -11.4460   28.5840 C   0  0  0  0  0  0  0  0  0  0  0  0
  -72.7710  -19.7030   33.5310 C   0  0  0  0  0  0  0  0  0  0  0  0
  -73.4930  -19.0600   35.6480 C   0  0  0  0  0  0  0  0  0  0  0  0
  -73.1420  -19.9580   32.0790 C   0  0  0  0  0  0  0  0  0  0  0  0
  -65.7320  -11.0020   29.1170 C   0  0  0  0  0  0  0  0  0  0  0  0
  -66.8470  -11.8470   29.1400 C   0  0  0  0  0  0  0  0  0  0  0  0
  -69.8580  -18.6720   28.7560 C   0  0  0  0  0  0  0  0  0  0  0  0
  -68.8460  -19.8240   26.8320 C   0  0  0  0  0  0  0  0  0  0  0  0
  -69.4260  -20.9520   25.9530 C   0  0  0  0  0  0  0  0  0  0  0  0
  -69.9550  -19.0970   27.4870 N   0  0  0  0  0  0  0  0  0  0  0  0
  -72.1110  -19.8720   31.2280 N   0  0  0  0  0  0  0  0  0  0  0  0
  -73.8510  -19.1150   34.2480 O   0  0  0  0  0  0  0  0  0  0  0  0
  -74.2120  -20.4970   31.7960 O   0  0  0  0  0  0  0  0  0  0  0  0
  -68.8140  -18.7960   29.4010 O   0  0  0  0  0  0  0  0  0  0  0  0
  -65.7600   -9.4210   29.7930 Cl  0  0  0  0  0  0  0  0  0  0  0  0
  -62.9020  -13.1980   27.4100 Cl  0  0  0  0  0  0  0  0  0  0  0  0
  -71.4710  -20.6960   29.3870 H   0  0  0  0  0  0  0  0  0  0  0  0
  -73.1830  -20.6610   29.5550 H   0  0  0  0  0  0  0  0  0  0  0  0
  -73.2570  -18.1430   29.4310 H   0  0  0  0  0  0  0  0  0  0  0  0
  -72.5670  -18.8330   27.9840 H   0  0  0  0  0  0  0  0  0  0  0  0
  -71.7350  -17.1510   31.3130 H   0  0  0  0  0  0  0  0  0  0  0  0
  -70.0050  -17.1920   31.0530 H   0  0  0  0  0  0  0  0  0  0  0  0
  -70.5070  -19.1160   32.5710 H   0  0  0  0  0  0  0  0  0  0  0  0
  -70.0470  -19.7940   31.1420 H   0  0  0  0  0  0  0  0  0  0  0  0
  -72.0530  -16.0080   29.0250 H   0  0  0  0  0  0  0  0  0  0  0  0
  -71.4760  -16.7080   27.5670 H   0  0  0  0  0  0  0  0  0  0  0  0
  -69.0680  -16.6780   27.0120 H   0  0  0  0  0  0  0  0  0  0  0  0
  -67.1720  -15.2780   26.9780 H   0  0  0  0  0  0  0  0  0  0  0  0
  -70.8020  -14.4150   30.1540 H   0  0  0  0  0  0  0  0  0  0  0  0
  -68.8970  -12.9690   30.1660 H   0  0  0  0  0  0  0  0  0  0  0  0
  -65.3930  -14.5560   27.5670 H   0  0  0  0  0  0  0  0  0  0  0  0
  -63.6610  -10.8020   28.6030 H   0  0  0  0  0  0  0  0  0  0  0  0
  -72.0360  -18.9270   33.6930 H   0  0  0  0  0  0  0  0  0  0  0  0
  -72.4270  -20.6310   33.9910 H   0  0  0  0  0  0  0  0  0  0  0  0
  -74.2240  -18.4580   36.1880 H   0  0  0  0  0  0  0  0  0  0  0  0
  -73.5140  -20.0620   36.0790 H   0  0  0  0  0  0  0  0  0  0  0  0
  -72.5030  -18.6440   35.8380 H   0  0  0  0  0  0  0  0  0  0  0  0
  -67.7560  -11.4510   29.4370 H   0  0  0  0  0  0  0  0  0  0  0  0
  -68.3480  -19.1560   26.1490 H   0  0  0  0  0  0  0  0  0  0  0  0
  -68.1190  -20.2300   27.5120 H   0  0  0  0  0  0  0  0  0  0  0  0
  -68.6270  -21.6000   25.5980 H   0  0  0  0  0  0  0  0  0  0  0  0
  -70.1070  -21.5820   26.5270 H   0  0  0  0  0  0  0  0  0  0  0  0
  -69.9750  -20.5580   25.0970 H   0  0  0  0  0  0  0  0  0  0  0  0
  -70.8050  -18.9390   26.9660 H   0  0  0  0  0  0  0  0  0  0  0  0
  1  2  1  0  0  0  0
  1 26  1  0  0  0  0
  1 32  1  0  0  0  0
  1 33  1  0  0  0  0
  2  3  1  0  0  0  0
  2 34  1  0  0  0  0
  2 35  1  0  0  0  0
  3  4  1  0  0  0  0
  3  6  1  0  0  0  0
  3 22  1  0  0  0  0
  4  5  1  0  0  0  0
  4 36  1  0  0  0  0
  4 37  1  0  0  0  0
  5 26  1  0  0  0  0
  5 38  1  0  0  0  0
  5 39  1  0  0  0  0
  6  7  1  0  0  0  0
  6 40  1  0  0  0  0
  6 41  1  0  0  0  0
  7  8  2  0  0  0  0
  7 10  1  0  0  0  0
  8  9  1  0  0  0  0
  8 42  1  0  0  0  0
  9 12  2  0  0  0  0
  9 43  1  0  0  0  0
 10 11  2  0  0  0  0
 10 44  1  0  0  0  0
 11 12  1  0  0  0  0
 11 45  1  0  0  0  0
 12 13  1  0  0  0  0
 13 14  2  0  0  0  0
 13 21  1  0  0  0  0
 14 15  1  0  0  0  0
 14 46  1  0  0  0  0
 15 16  2  0  0  0  0
 15 31  1  0  0  0  0
 16 20  1  0  0  0  0
 16 47  1  0  0  0  0
 17 19  1  0  0  0  0
 17 27  1  0  0  0  0
 17 48  1  0  0  0  0
 17 49  1  0  0  0  0
 18 27  1  0  0  0  0
 18 50  1  0  0  0  0
 18 51  1  0  0  0  0
 18 52  1  0  0  0  0
 19 26  1  0  0  0  0
 19 28  2  0  0  0  0
 20 21  2  0  0  0  0
 20 30  1  0  0  0  0
 21 53  1  0  0  0  0
 22 25  1  0  0  0  0
 22 29  2  0  0  0  0
 23 24  1  0  0  0  0
 23 25  1  0  0  0  0
 23 54  1  0  0  0  0
 23 55  1  0  0  0  0
 24 56  1  0  0  0  0
 24 57  1  0  0  0  0
 24 58  1  0  0  0  0
 25 59  1  0  0  0  0
M  END
>  <COMPND>
    title: molecule 1

$$$$
7NIF_ligand0.pdb
 OpenBabel06042612053D

 21 22  0  0  0  0  0  0  0  0999 V2000
  -17.5020   22.9160    1.5520 C   0  0  0  0  0  0  0  0  0  0  0  0
  -15.4420   22.3800    1.9730 N   0  0  0  0  0  0  0  0  0  0  0  0
  -15.7580   21.9570    0.7360 C   0  0  0  0  0  0  0  0  0  0  0  0
  -19.8800   21.2400   -4.3790 C   0  0  0  0  0  0  0  0  0  0  0  0
  -19.1280   21.5170   -3.0800 C   0  0  0  0  0  0  0  0  0  0  0  0
  -17.8670   22.0900   -3.1260 C   0  0  0  0  0  0  0  0  0  0  0  0
  -17.1840   22.3470   -1.9490 C   0  0  0  0  0  0  0  0  0  0  0  0
  -17.7580   22.0270   -0.7280 C   0  0  0  0  0  0  0  0  0  0  0  0
  -19.0210   21.4570   -0.6810 C   0  0  0  0  0  0  0  0  0  0  0  0
  -19.7040   21.1980   -1.8590 C   0  0  0  0  0  0  0  0  0  0  0  0
  -16.5080   22.9700    2.4820 C   0  0  0  0  0  0  0  0  0  0  0  0
  -17.0290   22.3000    0.4980 N   0  0  0  0  0  0  0  0  0  0  0  0
  -18.5160   23.2860    1.5930 H   0  0  0  0  0  0  0  0  0  0  0  0
  -15.1020   21.4290    0.0610 H   0  0  0  0  0  0  0  0  0  0  0  0
  -20.8530   21.6910   -4.1910 H   0  0  0  0  0  0  0  0  0  0  0  0
  -20.0660   20.1650   -4.4130 H   0  0  0  0  0  0  0  0  0  0  0  0
  -17.4030   22.4030   -4.0240 H   0  0  0  0  0  0  0  0  0  0  0  0
  -16.2110   22.8090   -1.9800 H   0  0  0  0  0  0  0  0  0  0  0  0
  -19.4730   21.2070    0.2680 H   0  0  0  0  0  0  0  0  0  0  0  0
  -20.6860   20.7480   -1.8210 H   0  0  0  0  0  0  0  0  0  0  0  0
  -16.5040   23.3950    3.4750 H   0  0  0  0  0  0  0  0  0  0  0  0
  1 11  2  0  0  0  0
  1 12  1  0  0  0  0
  1 13  1  0  0  0  0
  2  3  2  0  0  0  0
  2 11  1  0  0  0  0
  3 12  1  0  0  0  0
  3 14  1  0  0  0  0
  4  5  1  0  0  0  0
  4 15  1  0  0  0  0
  4 16  1  0  0  0  0
  5  6  2  0  0  0  0
  5 10  1  0  0  0  0
  6  7  1  0  0  0  0
  6 17  1  0  0  0  0
  7  8  2  0  0  0  0
  7 18  1  0  0  0  0
  8  9  1  0  0  0  0
  8 12  1  0  0  0  0
  9 10  2  0  0  0  0
  9 19  1  0  0  0  0
 10 20  1  0  0  0  0
 11 21  1  0  0  0  0
M  END
>  <COMPND>
    title: molecule 1

$$$$
7NIG_ligand0.pdb
 OpenBabel06042612053D

 21 22  0  0  0  0  0  0  0  0999 V2000
  -21.1030  -20.8480   -4.4020 C   0  0  0  0  0  0  0  0  0  0  0  0
  -21.9800  -21.1030   -3.1820 C   0  0  0  0  0  0  0  0  0  0  0  0
  -23.2080  -21.7420   -3.2980 C   0  0  0  0  0  0  0  0  0  0  0  0
  -23.9720  -21.9640   -2.1690 C   0  0  0  0  0  0  0  0  0  0  0  0
  -23.5060  -21.5330   -0.9270 C   0  0  0  0  0  0  0  0  0  0  0  0
  -23.8080  -22.2280    1.4350 C   0  0  0  0  0  0  0  0  0  0  0  0
  -25.9080  -21.8420    1.7040 C   0  0  0  0  0  0  0  0  0  0  0  0
  -25.5640  -21.5080    0.4270 C   0  0  0  0  0  0  0  0  0  0  0  0
  -22.2760  -20.9010   -0.8170 C   0  0  0  0  0  0  0  0  0  0  0  0
  -21.5170  -20.6830   -1.9530 C   0  0  0  0  0  0  0  0  0  0  0  0
  -24.2860  -21.7490    0.2800 N   0  0  0  0  0  0  0  0  0  0  0  0
  -24.8230  -22.2840    2.3130 N   0  0  0  0  0  0  0  0  0  0  0  0
  -19.7870  -19.8010   -1.8680 Br  0  0  0  0  0  0  0  0  0  0  0  0
  -21.0870  -19.7830   -4.6410 H   0  0  0  0  0  0  0  0  0  0  0  0
  -20.0850  -21.1670   -4.1770 H   0  0  0  0  0  0  0  0  0  0  0  0
  -23.6010  -22.1430   -4.1880 H   0  0  0  0  0  0  0  0  0  0  0  0
  -24.9230  -22.4660   -2.2430 H   0  0  0  0  0  0  0  0  0  0  0  0
  -22.7900  -22.5310    1.6290 H   0  0  0  0  0  0  0  0  0  0  0  0
  -26.8610  -21.7860    2.2080 H   0  0  0  0  0  0  0  0  0  0  0  0
  -26.1650  -21.1000   -0.3690 H   0  0  0  0  0  0  0  0  0  0  0  0
  -21.9110  -20.5740    0.1450 H   0  0  0  0  0  0  0  0  0  0  0  0
  1  2  1  0  0  0  0
  1 14  1  0  0  0  0
  1 15  1  0  0  0  0
  2  3  2  0  0  0  0
  2 10  1  0  0  0  0
  3  4  1  0  0  0  0
  3 16  1  0  0  0  0
  4  5  2  0  0  0  0
  4 17  1  0  0  0  0
  5  9  1  0  0  0  0
  5 11  1  0  0  0  0
  6 11  1  0  0  0  0
  6 12  2  0  0  0  0
  6 18  1  0  0  0  0
  7  8  2  0  0  0  0
  7 12  1  0  0  0  0
  7 19  1  0  0  0  0
  8 11  1  0  0  0  0
  8 20  1  0  0  0  0
  9 10  2  0  0  0  0
  9 21  1  0  0  0  0
 10 13  1  0  0  0  0
M  END
>  <COMPND>
    title: molecule 1

$$$$
7NJ6_ligand0.pdb
 OpenBabel06042612053D

 24 25  0  0  0  0  0  0  0  0999 V2000
   19.8870  -20.8330   -4.4350 C   0  0  0  0  0  0  0  0  0  0  0  0
   19.1640  -21.2020   -3.1420 C   0  0  0  0  0  0  0  0  0  0  0  0
   17.9560  -21.8820   -3.1860 C   0  0  0  0  0  0  0  0  0  0  0  0
   17.3000  -22.2180   -2.0110 C   0  0  0  0  0  0  0  0  0  0  0  0
   17.8570  -21.8620   -0.7920 C   0  0  0  0  0  0  0  0  0  0  0  0
   17.8870  -22.6740    1.5230 C   0  0  0  0  0  0  0  0  0  0  0  0
   15.8170  -22.5290    2.0790 C   0  0  0  0  0  0  0  0  0  0  0  0
   14.5380  -22.6090    2.9080 C   0  0  0  0  0  0  0  0  0  0  0  0
   15.9510  -22.1010    0.7870 C   0  0  0  0  0  0  0  0  0  0  0  0
   19.0680  -21.1910   -0.7520 C   0  0  0  0  0  0  0  0  0  0  0  0
   19.7220  -20.8540   -1.9240 C   0  0  0  0  0  0  0  0  0  0  0  0
   14.3810  -23.8910    3.3530 F   0  0  0  0  0  0  0  0  0  0  0  0
   14.6500  -21.7710    3.9790 F   0  0  0  0  0  0  0  0  0  0  0  0
   13.4610  -22.2490    2.1510 F   0  0  0  0  0  0  0  0  0  0  0  0
   17.2200  -22.1980    0.4700 N   0  0  0  0  0  0  0  0  0  0  0  0
   17.0100  -22.8760    2.5160 N   0  0  0  0  0  0  0  0  0  0  0  0
   19.8630  -19.7580   -4.6150 H   0  0  0  0  0  0  0  0  0  0  0  0
   20.9170  -21.1150   -4.2390 H   0  0  0  0  0  0  0  0  0  0  0  0
   17.5040  -22.2090   -4.0820 H   0  0  0  0  0  0  0  0  0  0  0  0
   16.3630  -22.7530   -2.0440 H   0  0  0  0  0  0  0  0  0  0  0  0
   18.9480  -22.8680    1.5760 H   0  0  0  0  0  0  0  0  0  0  0  0
   15.2090  -21.7320    0.0940 H   0  0  0  0  0  0  0  0  0  0  0  0
   19.5090  -20.9100    0.1930 H   0  0  0  0  0  0  0  0  0  0  0  0
   20.6620  -20.3220   -1.8820 H   0  0  0  0  0  0  0  0  0  0  0  0
  1  2  1  0  0  0  0
  1 17  1  0  0  0  0
  1 18  1  0  0  0  0
  2  3  2  0  0  0  0
  2 11  1  0  0  0  0
  3  4  1  0  0  0  0
  3 19  1  0  0  0  0
  4  5  2  0  0  0  0
  4 20  1  0  0  0  0
  5 10  1  0  0  0  0
  5 15  1  0  0  0  0
  6 15  1  0  0  0  0
  6 16  2  0  0  0  0
  6 21  1  0  0  0  0
  7  8  1  0  0  0  0
  7  9  2  0  0  0  0
  7 16  1  0  0  0  0
  8 12  1  0  0  0  0
  8 13  1  0  0  0  0
  8 14  1  0  0  0  0
  9 15  1  0  0  0  0
  9 22  1  0  0  0  0
 10 11  2  0  0  0  0
 10 23  1  0  0  0  0
 11 24  1  0  0  0  0
M  END
>  <COMPND>
    title: molecule 1

$$$$
7NJ8_ligand0.pdb
 OpenBabel06042612053D

 27 29  0  0  0  0  0  0  0  0999 V2000
  -23.0940  -22.2920   -0.5460 C   0  0  0  0  0  0  0  0  0  0  0  0
  -22.0080  -21.4820   -2.9610 C   0  0  0  0  0  0  0  0  0  0  0  0
  -21.8800  -21.6590   -0.5520 C   0  0  0  0  0  0  0  0  0  0  0  0
  -27.2620  -22.2340    2.6190 C   0  0  0  0  0  0  0  0  0  0  0  0
  -27.1360  -21.5930    1.3940 C   0  0  0  0  0  0  0  0  0  0  0  0
  -25.9810  -21.6910    0.6600 C   0  0  0  0  0  0  0  0  0  0  0  0
  -24.8800  -22.4760    1.1910 C   0  0  0  0  0  0  0  0  0  0  0  0
  -24.9940  -23.1050    2.3910 C   0  0  0  0  0  0  0  0  0  0  0  0
  -26.1710  -23.0110    3.1330 C   0  0  0  0  0  0  0  0  0  0  0  0
  -23.8070  -23.7600    2.6210 N   0  0  0  0  0  0  0  0  0  0  0  0
  -23.0090  -23.5370    1.6070 C   0  0  0  0  0  0  0  0  0  0  0  0
  -23.6540  -22.7430    0.7270 N   0  0  0  0  0  0  0  0  0  0  0  0
  -23.7820  -22.5500   -1.7580 C   0  0  0  0  0  0  0  0  0  0  0  0
  -23.2270  -22.1370   -2.9590 C   0  0  0  0  0  0  0  0  0  0  0  0
  -21.3250  -21.2300   -1.7550 C   0  0  0  0  0  0  0  0  0  0  0  0
  -21.3610  -21.0140   -4.2510 C   0  0  0  0  0  0  0  0  0  0  0  0
  -21.3580  -21.4690    0.3740 H   0  0  0  0  0  0  0  0  0  0  0  0
  -28.1240  -22.0470    3.2330 H   0  0  0  0  0  0  0  0  0  0  0  0
  -27.7420  -20.7530    1.1970 H   0  0  0  0  0  0  0  0  0  0  0  0
  -25.8520  -21.1290   -0.2520 H   0  0  0  0  0  0  0  0  0  0  0  0
  -26.2520  -23.4950    4.0950 H   0  0  0  0  0  0  0  0  0  0  0  0
  -22.0100  -23.9340    1.4930 H   0  0  0  0  0  0  0  0  0  0  0  0
  -24.7390  -23.0500   -1.7470 H   0  0  0  0  0  0  0  0  0  0  0  0
  -23.7760  -22.3240   -3.8600 H   0  0  0  0  0  0  0  0  0  0  0  0
  -20.3750  -20.7150   -1.7560 H   0  0  0  0  0  0  0  0  0  0  0  0
  -20.2830  -21.0950   -4.1000 H   0  0  0  0  0  0  0  0  0  0  0  0
  -21.5500  -19.9770   -4.4790 H   0  0  0  0  0  0  0  0  0  0  0  0
  1  3  1  0  0  0  0
  1 12  1  0  0  0  0
  1 13  2  0  0  0  0
  2 14  2  0  0  0  0
  2 15  1  0  0  0  0
  2 16  1  0  0  0  0
  3 15  2  0  0  0  0
  3 17  1  0  0  0  0
  4  5  2  0  0  0  0
  4  9  1  0  0  0  0
  4 18  1  0  0  0  0
  5  6  1  0  0  0  0
  5 19  1  0  0  0  0
  6  7  2  0  0  0  0
  6 20  1  0  0  0  0
  7  8  1  0  0  0  0
  7 12  1  0  0  0  0
  8  9  2  0  0  0  0
  8 10  1  0  0  0  0
  9 21  1  0  0  0  0
 10 11  2  0  0  0  0
 11 12  1  0  0  0  0
 11 22  1  0  0  0  0
 13 14  1  0  0  0  0
 13 23  1  0  0  0  0
 14 24  1  0  0  0  0
 15 25  1  0  0  0  0
 16 26  1  0  0  0  0
 16 27  1  0  0  0  0
M  END
>  <COMPND>
    title: molecule 1

$$$$
7NJA_ligand0.pdb
 OpenBabel06042612053D

 31 33  0  0  0  0  0  0  0  0999 V2000
  -21.3800  -21.0070   -4.2430 C   0  0  0  0  0  0  0  0  0  0  0  0
  -22.1890  -21.3320   -2.9880 C   0  0  0  0  0  0  0  0  0  0  0  0
  -21.7340  -20.8910   -1.7550 C   0  0  0  0  0  0  0  0  0  0  0  0
  -22.4630  -21.1820   -0.6100 C   0  0  0  0  0  0  0  0  0  0  0  0
  -23.6440  -21.9140   -0.6880 C   0  0  0  0  0  0  0  0  0  0  0  0
  -24.0050  -22.9040    1.5960 C   0  0  0  0  0  0  0  0  0  0  0  0
  -22.6210  -23.4940    1.8450 C   0  0  0  0  0  0  0  0  0  0  0  0
  -22.1600  -23.5570    3.1400 C   0  0  0  0  0  0  0  0  0  0  0  0
  -20.9060  -24.0890    3.3770 C   0  0  0  0  0  0  0  0  0  0  0  0
  -20.0860  -24.5480    2.3620 C   0  0  0  0  0  0  0  0  0  0  0  0
  -20.5510  -24.4740    1.0690 C   0  0  0  0  0  0  0  0  0  0  0  0
  -21.8160  -23.9610    0.8180 C   0  0  0  0  0  0  0  0  0  0  0  0
  -26.0590  -22.3460    1.9330 C   0  0  0  0  0  0  0  0  0  0  0  0
  -25.6710  -21.8830    0.7070 C   0  0  0  0  0  0  0  0  0  0  0  0
  -24.0880  -22.3570   -1.9290 C   0  0  0  0  0  0  0  0  0  0  0  0
  -23.3660  -22.0680   -3.0770 C   0  0  0  0  0  0  0  0  0  0  0  0
  -24.4180  -22.2220    0.5160 N   0  0  0  0  0  0  0  0  0  0  0  0
  -25.0260  -22.9660    2.4690 N   0  0  0  0  0  0  0  0  0  0  0  0
  -21.5160  -19.9530   -4.4840 H   0  0  0  0  0  0  0  0  0  0  0  0
  -20.3310  -21.1210   -3.9650 H   0  0  0  0  0  0  0  0  0  0  0  0
  -20.8190  -20.3210   -1.6780 H   0  0  0  0  0  0  0  0  0  0  0  0
  -22.1090  -20.8340    0.3500 H   0  0  0  0  0  0  0  0  0  0  0  0
  -22.7520  -23.1720    3.9580 H   0  0  0  0  0  0  0  0  0  0  0  0
  -20.5250  -23.9780    4.3490 H   0  0  0  0  0  0  0  0  0  0  0  0
  -19.0850  -24.8600    2.6010 H   0  0  0  0  0  0  0  0  0  0  0  0
  -19.9150  -24.8220    0.2850 H   0  0  0  0  0  0  0  0  0  0  0  0
  -22.1730  -23.9430   -0.1980 H   0  0  0  0  0  0  0  0  0  0  0  0
  -27.0110  -22.2730    2.4390 H   0  0  0  0  0  0  0  0  0  0  0  0
  -26.2310  -21.3300   -0.0330 H   0  0  0  0  0  0  0  0  0  0  0  0
  -24.9990  -22.9300   -1.9910 H   0  0  0  0  0  0  0  0  0  0  0  0
  -23.7190  -22.4850   -3.9870 H   0  0  0  0  0  0  0  0  0  0  0  0
  1  2  1  0  0  0  0
  1 19  1  0  0  0  0
  1 20  1  0  0  0  0
  2  3  2  0  0  0  0
  2 16  1  0  0  0  0
  3  4  1  0  0  0  0
  3 21  1  0  0  0  0
  4  5  2  0  0  0  0
  4 22  1  0  0  0  0
  5 15  1  0  0  0  0
  5 17  1  0  0  0  0
  6  7  1  0  0  0  0
  6 17  1  0  0  0  0
  6 18  2  0  0  0  0
  7  8  2  0  0  0  0
  7 12  1  0  0  0  0
  8  9  1  0  0  0  0
  8 23  1  0  0  0  0
  9 10  2  0  0  0  0
  9 24  1  0  0  0  0
 10 11  1  0  0  0  0
 10 25  1  0  0  0  0
 11 12  2  0  0  0  0
 11 26  1  0  0  0  0
 12 27  1  0  0  0  0
 13 14  2  0  0  0  0
 13 18  1  0  0  0  0
 13 28  1  0  0  0  0
 14 17  1  0  0  0  0
 14 29  1  0  0  0  0
 15 16  2  0  0  0  0
 15 30  1  0  0  0  0
 16 31  1  0  0  0  0
M  END
>  <COMPND>
    title: molecule 1

$$$$
7NRK_ligand0.pdb
 OpenBabel06042612053D

 24 25  0  0  0  0  0  0  0  0999 V2000
   19.9120  -21.2050   -4.1400 C   0  0  0  0  0  0  0  0  0  0  0  0
   19.0730  -21.4800   -2.8940 C   0  0  0  0  0  0  0  0  0  0  0  0
   19.5800  -21.1980   -1.6330 C   0  0  0  0  0  0  0  0  0  0  0  0
   18.8150  -21.4550   -0.5030 C   0  0  0  0  0  0  0  0  0  0  0  0
   17.5400  -21.9900   -0.6370 C   0  0  0  0  0  0  0  0  0  0  0  0
   16.9380  -23.1790    1.4410 C   0  0  0  0  0  0  0  0  0  0  0  0
   15.9230  -23.1190    2.3520 C   0  0  0  0  0  0  0  0  0  0  0  0
   15.7630  -23.9930    3.5950 C   0  0  0  0  0  0  0  0  0  0  0  0
   15.5750  -21.6330    0.8340 C   0  0  0  0  0  0  0  0  0  0  0  0
   17.0390  -22.2710   -1.8990 C   0  0  0  0  0  0  0  0  0  0  0  0
   17.8020  -22.0150   -3.0270 C   0  0  0  0  0  0  0  0  0  0  0  0
   16.7140  -22.2660    0.5280 N   0  0  0  0  0  0  0  0  0  0  0  0
   15.0930  -22.1680    1.9690 N   0  0  0  0  0  0  0  0  0  0  0  0
   20.1660  -20.1450   -4.1480 H   0  0  0  0  0  0  0  0  0  0  0  0
   20.8490  -21.7270   -3.9530 H   0  0  0  0  0  0  0  0  0  0  0  0
   20.5690  -20.7760   -1.5270 H   0  0  0  0  0  0  0  0  0  0  0  0
   19.2100  -21.2350    0.4780 H   0  0  0  0  0  0  0  0  0  0  0  0
   17.8010  -23.8270    1.4050 H   0  0  0  0  0  0  0  0  0  0  0  0
   14.8090  -23.8080    4.0910 H   0  0  0  0  0  0  0  0  0  0  0  0
   15.7980  -25.0510    3.3360 H   0  0  0  0  0  0  0  0  0  0  0  0
   16.5570  -23.8000    4.3160 H   0  0  0  0  0  0  0  0  0  0  0  0
   15.1350  -20.8380    0.2660 H   0  0  0  0  0  0  0  0  0  0  0  0
   16.0560  -22.7000   -2.0000 H   0  0  0  0  0  0  0  0  0  0  0  0
   17.3850  -22.2720   -3.9700 H   0  0  0  0  0  0  0  0  0  0  0  0
  1  2  1  0  0  0  0
  1 14  1  0  0  0  0
  1 15  1  0  0  0  0
  2  3  2  0  0  0  0
  2 11  1  0  0  0  0
  3  4  1  0  0  0  0
  3 16  1  0  0  0  0
  4  5  2  0  0  0  0
  4 17  1  0  0  0  0
  5 10  1  0  0  0  0
  5 12  1  0  0  0  0
  6  7  2  0  0  0  0
  6 12  1  0  0  0  0
  6 18  1  0  0  0  0
  7  8  1  0  0  0  0
  7 13  1  0  0  0  0
  8 19  1  0  0  0  0
  8 20  1  0  0  0  0
  8 21  1  0  0  0  0
  9 12  1  0  0  0  0
  9 13  2  0  0  0  0
  9 22  1  0  0  0  0
 10 11  2  0  0  0  0
 10 23  1  0  0  0  0
 11 24  1  0  0  0  0
M  END
>  <COMPND>
    title: molecule 1

$$$$
7NRL_ligand0.pdb
 OpenBabel06042612053D

 32 34  0  0  0  0  0  0  0  0999 V2000
  -21.2340  -21.1170   -3.8690 C   0  0  0  0  0  0  0  0  0  0  0  0
  -22.1830  -21.4210   -2.6950 C   0  0  0  0  0  0  0  0  0  0  0  0
  -23.3020  -22.1620   -2.9130 C   0  0  0  0  0  0  0  0  0  0  0  0
  -24.1840  -22.4730   -1.8620 C   0  0  0  0  0  0  0  0  0  0  0  0
  -21.8850  -20.9570   -1.4230 C   0  0  0  0  0  0  0  0  0  0  0  0
  -22.7860  -21.2620   -0.3660 C   0  0  0  0  0  0  0  0  0  0  0  0
  -23.8990  -21.9950   -0.5980 C   0  0  0  0  0  0  0  0  0  0  0  0
  -24.6340  -23.0580    1.5960 C   0  0  0  0  0  0  0  0  0  0  0  0
  -23.2660  -23.7520    1.9910 C   0  0  0  0  0  0  0  0  0  0  0  0
  -22.5360  -24.4860    0.9880 C   0  0  0  0  0  0  0  0  0  0  0  0
  -21.3560  -25.0970    1.3270 C   0  0  0  0  0  0  0  0  0  0  0  0
  -20.8830  -25.0070    2.6500 C   0  0  0  0  0  0  0  0  0  0  0  0
  -21.6170  -24.2910    3.6190 C   0  0  0  0  0  0  0  0  0  0  0  0
  -22.8250  -23.6620    3.2800 C   0  0  0  0  0  0  0  0  0  0  0  0
  -26.7240  -22.4110    1.6580 C   0  0  0  0  0  0  0  0  0  0  0  0
  -26.1120  -21.9060    0.4800 C   0  0  0  0  0  0  0  0  0  0  0  0
  -24.8600  -22.3140    0.4680 N   0  0  0  0  0  0  0  0  0  0  0  0
  -25.8060  -23.1220    2.3250 N   0  0  0  0  0  0  0  0  0  0  0  0
  -23.5890  -22.6290   -4.1290 O   0  0  0  0  0  0  0  0  0  0  0  0
  -21.0830  -20.0440   -3.8910 H   0  0  0  0  0  0  0  0  0  0  0  0
  -20.2710  -21.5750   -3.6420 H   0  0  0  0  0  0  0  0  0  0  0  0
  -25.0720  -23.0610   -2.0370 H   0  0  0  0  0  0  0  0  0  0  0  0
  -20.9910  -20.3800   -1.2430 H   0  0  0  0  0  0  0  0  0  0  0  0
  -22.5600  -20.9130    0.6270 H   0  0  0  0  0  0  0  0  0  0  0  0
  -22.9140  -24.5690   -0.0200 H   0  0  0  0  0  0  0  0  0  0  0  0
  -20.8020  -25.6510    0.5860 H   0  0  0  0  0  0  0  0  0  0  0  0
  -19.9680  -25.5090    2.9100 H   0  0  0  0  0  0  0  0  0  0  0  0
  -21.2940  -24.2350    4.6380 H   0  0  0  0  0  0  0  0  0  0  0  0
  -23.4010  -23.1450    4.0320 H   0  0  0  0  0  0  0  0  0  0  0  0
  -27.7250  -22.3000    2.0430 H   0  0  0  0  0  0  0  0  0  0  0  0
  -26.5100  -21.3020   -0.3160 H   0  0  0  0  0  0  0  0  0  0  0  0
  -24.3490  -23.1950   -4.1250 H   0  0  0  0  0  0  0  0  0  0  0  0
  1  2  1  0  0  0  0
  1 20  1  0  0  0  0
  1 21  1  0  0  0  0
  2  3  2  0  0  0  0
  2  5  1  0  0  0  0
  3  4  1  0  0  0  0
  3 19  1  0  0  0  0
  4  7  2  0  0  0  0
  4 22  1  0  0  0  0
  5  6  2  0  0  0  0
  5 23  1  0  0  0  0
  6  7  1  0  0  0  0
  6 24  1  0  0  0  0
  7 17  1  0  0  0  0
  8  9  1  0  0  0  0
  8 17  1  0  0  0  0
  8 18  2  0  0  0  0
  9 10  2  0  0  0  0
  9 14  1  0  0  0  0
 10 11  1  0  0  0  0
 10 25  1  0  0  0  0
 11 12  2  0  0  0  0
 11 26  1  0  0  0  0
 12 13  1  0  0  0  0
 12 27  1  0  0  0  0
 13 14  2  0  0  0  0
 13 28  1  0  0  0  0
 14 29  1  0  0  0  0
 15 16  2  0  0  0  0
 15 18  1  0  0  0  0
 15 30  1  0  0  0  0
 16 17  1  0  0  0  0
 16 31  1  0  0  0  0
 19 32  1  0  0  0  0
M  END
>  <COMPND>
    title: molecule 1

$$$$
7TE8_ligand0.pdb
 OpenBabel06042612053D

 53 54  0  0  1  0  0  0  0  0999 V2000
  -28.2100  -47.8800   38.1710 C   0  0  0  0  0  0  0  0  0  0  0  0
  -30.5040  -49.2080   40.8150 C   0  0  0  0  0  0  0  0  0  0  0  0
  -28.5070  -48.5100   41.9560 C   0  0  0  0  0  0  0  0  0  0  0  0
  -25.5220  -52.6170   40.2860 C   0  0  0  0  0  0  0  0  0  0  0  0
  -28.2410  -46.7250   38.6880 C   0  0  0  0  0  0  0  0  0  0  0  0
  -27.4550  -48.9230   38.9000 C   0  0  1  0  0  0  0  0  0  0  0  0
  -28.2790  -49.7830   39.6950 C   0  0  1  0  0  0  0  0  0  0  0  0
  -26.5610  -49.6880   37.9450 C   0  0  0  0  0  0  0  0  0  0  0  0
  -25.7050  -50.7120   38.5570 C   0  0  0  0  0  0  0  0  0  0  0  0
  -27.5480  -51.0010   40.2130 C   0  0  0  0  0  0  0  0  0  0  0  0
  -29.0880  -49.1550   40.8280 C   0  0  0  0  0  0  0  0  0  0  0  0
  -26.3290  -51.4600   39.6970 C   0  0  0  0  0  0  0  0  0  0  0  0
  -30.7060  -48.0310   42.9420 C   0  0  0  0  0  0  0  0  0  0  0  0
  -31.2780  -48.6560   41.8650 C   0  0  0  0  0  0  0  0  0  0  0  0
  -29.2950  -47.9650   42.9820 C   0  0  0  0  0  0  0  0  0  0  0  0
  -31.5800  -47.4310   44.1270 C   0  0  0  0  0  0  0  0  0  0  0  0
  -28.9500  -48.1140   36.9690 C   0  0  0  0  0  0  0  0  0  0  0  0
  -32.7860  -46.7140   43.7930 C   0  0  0  0  0  0  0  0  0  0  0  0
  -32.5700  -45.6750   42.7580 C   0  0  0  0  0  0  0  0  0  0  0  0
  -33.6190  -44.6500   42.4200 C   0  0  0  0  0  0  0  0  0  0  0  0
  -34.5620  -44.3540   43.4470 C   0  0  0  0  0  0  0  0  0  0  0  0
  -31.0640  -49.8120   39.8240 O   0  0  0  0  0  0  0  0  0  0  0  0
  -27.2240  -48.4620   42.0010 O   0  0  0  0  0  0  0  0  0  0  0  0
  -26.0020  -53.0160   41.1790 H   0  0  0  0  0  0  0  0  0  0  0  0
  -25.4810  -53.4010   39.5400 H   0  0  0  0  0  0  0  0  0  0  0  0
  -24.5080  -52.3140   40.5380 H   0  0  0  0  0  0  0  0  0  0  0  0
  -28.7630  -45.9860   38.0760 H   0  0  0  0  0  0  0  0  0  0  0  0
  -28.7520  -46.7440   39.6500 H   0  0  0  0  0  0  0  0  0  0  0  0
  -27.2420  -46.3260   38.8550 H   0  0  0  0  0  0  0  0  0  0  0  0
  -26.7580  -48.4190   39.5660 H   0  0  0  0  0  0  0  0  0  0  0  0
  -28.9530  -50.2460   38.9770 H   0  0  0  0  0  0  0  0  0  0  0  0
  -25.9370  -49.0020   37.3720 H   0  0  0  0  0  0  0  0  0  0  0  0
  -27.1860  -50.1960   37.2110 H   0  0  0  0  0  0  0  0  0  0  0  0
  -24.8270  -50.2210   38.9760 H   0  0  0  0  0  0  0  0  0  0  0  0
  -25.3470  -51.4160   37.8060 H   0  0  0  0  0  0  0  0  0  0  0  0
  -28.0020  -51.5190   41.0440 H   0  0  0  0  0  0  0  0  0  0  0  0
  -32.3530  -48.7380   41.8250 H   0  0  0  0  0  0  0  0  0  0  0  0
  -28.8260  -47.4860   43.8270 H   0  0  0  0  0  0  0  0  0  0  0  0
  -30.9410  -46.7930   44.7310 H   0  0  0  0  0  0  0  0  0  0  0  0
  -31.8240  -48.2620   44.7810 H   0  0  0  0  0  0  0  0  0  0  0  0
  -28.9880  -49.0890   36.5080 H   0  0  0  0  0  0  0  0  0  0  0  0
  -29.5100  -47.3320   36.4770 H   0  0  0  0  0  0  0  0  0  0  0  0
  -33.1840  -46.2760   44.7090 H   0  0  0  0  0  0  0  0  0  0  0  0
  -33.5430  -47.4100   43.4310 H   0  0  0  0  0  0  0  0  0  0  0  0
  -32.2630  -46.1350   41.8190 H   0  0  0  0  0  0  0  0  0  0  0  0
  -31.6990  -45.1010   43.0770 H   0  0  0  0  0  0  0  0  0  0  0  0
  -34.1760  -45.0030   41.5510 H   0  0  0  0  0  0  0  0  0  0  0  0
  -33.1310  -43.7300   42.0940 H   0  0  0  0  0  0  0  0  0  0  0  0
  -35.2030  -43.5340   43.1370 H   0  0  0  0  0  0  0  0  0  0  0  0
  -35.1550  -45.2320   43.6910 H   0  0  0  0  0  0  0  0  0  0  0  0
  -34.0540  -44.0290   44.3540 H   0  0  0  0  0  0  0  0  0  0  0  0
  -32.0050  -49.6710   39.8000 H   0  0  0  0  0  0  0  0  0  0  0  0
  -26.8930  -47.9280   42.7130 H   0  0  0  0  0  0  0  0  0  0  0  0
  1  5  1  0  0  0  0
  1  6  1  0  0  0  0
  1 17  2  0  0  0  0
  2 11  2  0  0  0  0
  2 14  1  0  0  0  0
  2 22  1  0  0  0  0
  3 11  1  0  0  0  0
  3 15  2  0  0  0  0
  3 23  1  0  0  0  0
  4 12  1  0  0  0  0
  4 24  1  0  0  0  0
  4 25  1  0  0  0  0
  4 26  1  0  0  0  0
  5 27  1  0  0  0  0
  5 28  1  0  0  0  0
  5 29  1  0  0  0  0
  6  7  1  0  0  0  0
  6  8  1  0  0  0  0
  6 30  1  1  0  0  0
  7 10  1  0  0  0  0
  7 11  1  0  0  0  0
  7 31  1  6  0  0  0
  8  9  1  0  0  0  0
  8 32  1  0  0  0  0
  8 33  1  0  0  0  0
  9 12  1  0  0  0  0
  9 34  1  0  0  0  0
  9 35  1  0  0  0  0
 10 12  2  0  0  0  0
 10 36  1  0  0  0  0
 13 14  2  0  0  0  0
 13 15  1  0  0  0  0
 13 16  1  0  0  0  0
 14 37  1  0  0  0  0
 15 38  1  0  0  0  0
 16 18  1  0  0  0  0
 16 39  1  0  0  0  0
 16 40  1  0  0  0  0
 17 41  1  0  0  0  0
 17 42  1  0  0  0  0
 18 19  1  0  0  0  0
 18 43  1  0  0  0  0
 18 44  1  0  0  0  0
 19 20  1  0  0  0  0
 19 45  1  0  0  0  0
 19 46  1  0  0  0  0
 20 21  1  0  0  0  0
 20 47  1  0  0  0  0
 20 48  1  0  0  0  0
 21 49  1  0  0  0  0
 21 50  1  0  0  0  0
 21 51  1  0  0  0  0
 22 52  1  0  0  0  0
 23 53  1  0  0  0  0
M  END
>  <COMPND>
    title: molecule 1

$$$$
8A65_ligand0.pdb
 OpenBabel06042612053D

 41 42  0  0  1  0  0  0  0  0999 V2000
  -17.7410  -21.7530    0.2760 C   0  0  0  0  0  0  0  0  0  0  0  0
  -18.6170  -20.8360   -0.2920 C   0  0  0  0  0  0  0  0  0  0  0  0
  -19.7280  -20.4180    0.4410 C   0  0  0  0  0  0  0  0  0  0  0  0
  -19.9320  -20.9070    1.7170 C   0  0  0  0  0  0  0  0  0  0  0  0
  -19.0340  -21.8070    2.2760 C   0  0  0  0  0  0  0  0  0  0  0  0
  -17.9320  -22.2320    1.5580 C   0  0  0  0  0  0  0  0  0  0  0  0
  -17.5570  -23.4550   -2.7500 C   0  0  0  0  0  0  0  0  0  0  0  0
  -19.4190  -25.3680   -7.5680 C   0  0  0  0  0  0  0  0  0  0  0  0
  -18.0170  -24.7460   -7.4740 C   0  0  0  0  0  0  0  0  0  0  0  0
  -17.7300  -25.1800   -4.9180 C   0  0  0  0  0  0  0  0  0  0  0  0
  -17.1110  -24.7720   -3.5130 C   0  0  1  0  0  0  0  0  0  0  0  0
  -15.6750  -24.8160   -3.8380 C   0  0  0  0  0  0  0  0  0  0  0  0
  -15.1000  -23.4700   -3.7740 C   0  0  0  0  0  0  0  0  0  0  0  0
  -15.0870  -23.1130   -2.3050 C   0  0  0  0  0  0  0  0  0  0  0  0
  -16.4970  -22.1850   -0.5060 C   0  0  0  0  0  0  0  0  0  0  0  0
  -17.4980  -24.4020   -6.1340 N   0  0  0  0  0  0  0  0  0  0  0  0
  -16.4770  -22.8990   -1.7950 N   0  0  0  0  0  0  0  0  0  0  0  0
  -18.3610  -20.3460   -1.6420 N   0  0  0  0  0  0  0  0  0  0  0  0
  -15.4610  -21.8470    0.0090 O   0  0  0  0  0  0  0  0  0  0  0  0
  -18.3220  -26.2050   -4.9780 O   0  0  0  0  0  0  0  0  0  0  0  0
  -20.6140  -24.6040   -6.4080 S   0  5  0  0  0  0  0  0  0  0  0  0
  -20.8610  -19.2410   -0.2790 Cl  0  0  0  0  0  0  0  0  0  0  0  0
  -19.2460  -22.4800    3.9220 Cl  0  0  0  0  0  0  0  0  0  0  0  0
  -20.7970  -20.5930    2.2760 H   0  0  0  0  0  0  0  0  0  0  0  0
  -17.2380  -22.9360    1.9960 H   0  0  0  0  0  0  0  0  0  0  0  0
  -18.4630  -23.6530   -2.1760 H   0  0  0  0  0  0  0  0  0  0  0  0
  -17.8200  -22.6750   -3.4650 H   0  0  0  0  0  0  0  0  0  0  0  0
  -19.3690  -26.4340   -7.3480 H   0  0  0  0  0  0  0  0  0  0  0  0
  -19.8000  -25.2880   -8.5840 H   0  0  0  0  0  0  0  0  0  0  0  0
  -18.0180  -23.8170   -8.0450 H   0  0  0  0  0  0  0  0  0  0  0  0
  -17.2960  -25.3980   -7.9680 H   0  0  0  0  0  0  0  0  0  0  0  0
  -17.3140  -25.6010   -2.8370 H   0  0  0  0  0  0  0  0  0  0  0  0
  -15.3850  -25.2810   -4.7850 H   0  0  0  0  0  0  0  0  0  0  0  0
  -15.1690  -25.4440   -3.1060 H   0  0  0  0  0  0  0  0  0  0  0  0
  -15.6340  -22.7420   -4.3870 H   0  0  0  0  0  0  0  0  0  0  0  0
  -14.0850  -23.4810   -4.1580 H   0  0  0  0  0  0  0  0  0  0  0  0
  -14.5150  -22.1860   -2.2300 H   0  0  0  0  0  0  0  0  0  0  0  0
  -14.5570  -23.8490   -1.7000 H   0  0  0  0  0  0  0  0  0  0  0  0
  -16.9460  -23.5600   -6.0600 H   0  0  0  0  0  0  0  0  0  0  0  0
  -18.9520  -19.6330   -2.0470 H   0  0  0  0  0  0  0  0  0  0  0  0
  -17.4790  -20.5120   -2.1070 H   0  0  0  0  0  0  0  0  0  0  0  0
  1  2  2  0  0  0  0
  1  6  1  0  0  0  0
  1 15  1  0  0  0  0
  2  3  1  0  0  0  0
  2 18  1  0  0  0  0
  3  4  2  0  0  0  0
  3 22  1  0  0  0  0
  4  5  1  0  0  0  0
  4 24  1  0  0  0  0
  5  6  2  0  0  0  0
  5 23  1  0  0  0  0
  6 25  1  0  0  0  0
  7 11  1  0  0  0  0
  7 17  1  0  0  0  0
  7 26  1  0  0  0  0
  7 27  1  0  0  0  0
  8  9  1  0  0  0  0
  8 21  1  0  0  0  0
  8 28  1  0  0  0  0
  8 29  1  0  0  0  0
  9 16  1  0  0  0  0
  9 30  1  0  0  0  0
  9 31  1  0  0  0  0
 10 11  1  0  0  0  0
 10 16  1  0  0  0  0
 10 20  2  0  0  0  0
 11 12  1  0  0  0  0
 11 32  1  1  0  0  0
 12 13  1  0  0  0  0
 12 33  1  0  0  0  0
 12 34  1  0  0  0  0
 13 14  1  0  0  0  0
 13 35  1  0  0  0  0
 13 36  1  0  0  0  0
 14 17  1  0  0  0  0
 14 37  1  0  0  0  0
 14 38  1  0  0  0  0
 15 17  1  0  0  0  0
 15 19  2  0  0  0  0
 16 39  1  0  0  0  0
 18 40  1  0  0  0  0
 18 41  1  0  0  0  0
M  CHG  1  21  -1
M  END
>  <COMPND>
    title: molecule 1

$$$$
8A68_ligand0.pdb
 OpenBabel06042612053D

 55 57  0  0  1  0  0  0  0  0999 V2000
  -28.8330   16.5330   -1.4050 C   0  0  0  0  0  0  0  0  0  0  0  0
  -22.5510   22.9250    0.7920 C   0  0  0  0  0  0  0  0  0  0  0  0
  -23.7550   24.4300   -0.7550 C   0  0  0  0  0  0  0  0  0  0  0  0
  -23.9790   24.0660   -2.1980 C   0  0  0  0  0  0  0  0  0  0  0  0
  -22.8030   24.5700   -3.0330 C   0  0  2  0  0  0  0  0  0  0  0  0
  -22.9050   24.2040   -4.5040 C   0  0  0  0  0  0  0  0  0  0  0  0
  -22.8870   25.1660   -6.8360 C   0  0  0  0  0  0  0  0  0  0  0  0
  -21.8030   24.2730   -7.3960 C   0  0  0  0  0  0  0  0  0  0  0  0
  -21.4930   23.9950   -2.4710 C   0  0  0  0  0  0  0  0  0  0  0  0
  -21.3370   24.2030   -0.9760 C   0  0  0  0  0  0  0  0  0  0  0  0
  -24.2730   20.3610    1.1330 C   0  0  0  0  0  0  0  0  0  0  0  0
  -28.4720   18.7690   -0.6420 C   0  0  0  0  0  0  0  0  0  0  0  0
  -25.0520   19.3270    0.7070 C   0  0  0  0  0  0  0  0  0  0  0  0
  -26.3700   19.5570    0.2490 C   0  0  0  0  0  0  0  0  0  0  0  0
  -27.2000   18.5030   -0.2070 C   0  0  0  0  0  0  0  0  0  0  0  0
  -28.9690   20.0910   -0.6460 C   0  0  0  0  0  0  0  0  0  0  0  0
  -28.1830   21.1160   -0.2240 C   0  0  0  0  0  0  0  0  0  0  0  0
  -26.8630   20.8880    0.2310 C   0  0  0  0  0  0  0  0  0  0  0  0
  -26.0200   21.9340    0.6760 C   0  0  0  0  0  0  0  0  0  0  0  0
  -24.7410   21.6970    1.1070 C   0  0  0  0  0  0  0  0  0  0  0  0
  -23.8460   22.8280    1.5910 C   0  0  1  0  0  0  0  0  0  0  0  0
  -23.5630   22.6910    3.0900 C   0  0  0  0  0  0  0  0  0  0  0  0
  -22.5390   23.7810   -0.2540 N   0  0  0  0  0  0  0  0  0  0  0  0
  -22.8500   25.2150   -5.3770 N   0  0  0  0  0  0  0  0  0  0  0  0
  -29.3530   17.8220   -1.0920 O   0  0  0  0  0  0  0  0  0  0  0  0
  -21.5640   22.2700    1.1140 O   0  0  0  0  0  0  0  0  0  0  0  0
  -22.9930   23.0300   -4.8780 O   0  0  0  0  0  0  0  0  0  0  0  0
  -20.1830   24.5890   -6.6490 S   0  5  0  0  0  0  0  0  0  0  0  0
  -29.6270   15.9140   -1.8220 H   0  0  0  0  0  0  0  0  0  0  0  0
  -28.0320   16.5930   -2.1440 H   0  0  0  0  0  0  0  0  0  0  0  0
  -28.4560   16.0340   -0.5130 H   0  0  0  0  0  0  0  0  0  0  0  0
  -24.6680   24.0380   -0.3470 H   0  0  0  0  0  0  0  0  0  0  0  0
  -23.7140   25.5090   -0.6160 H   0  0  0  0  0  0  0  0  0  0  0  0
  -24.9090   24.5120   -2.5540 H   0  0  0  0  0  0  0  0  0  0  0  0
  -24.0920   22.9840   -2.3000 H   0  0  0  0  0  0  0  0  0  0  0  0
  -22.7640   25.6580   -2.9450 H   0  0  0  0  0  0  0  0  0  0  0  0
  -23.8690   24.8290   -7.1700 H   0  0  0  0  0  0  0  0  0  0  0  0
  -22.7560   26.1820   -7.2080 H   0  0  0  0  0  0  0  0  0  0  0  0
  -21.7200   24.4350   -8.4710 H   0  0  0  0  0  0  0  0  0  0  0  0
  -22.0220   23.2200   -7.2800 H   0  0  0  0  0  0  0  0  0  0  0  0
  -20.6370   24.4160   -2.9970 H   0  0  0  0  0  0  0  0  0  0  0  0
  -21.4770   22.9210   -2.6540 H   0  0  0  0  0  0  0  0  0  0  0  0
  -21.1690   25.2620   -0.8460 H   0  0  0  0  0  0  0  0  0  0  0  0
  -20.4370   23.6990   -0.6220 H   0  0  0  0  0  0  0  0  0  0  0  0
  -23.2740   20.1430    1.4800 H   0  0  0  0  0  0  0  0  0  0  0  0
  -24.6530   18.3290    0.6950 H   0  0  0  0  0  0  0  0  0  0  0  0
  -26.8030   17.5000   -0.1970 H   0  0  0  0  0  0  0  0  0  0  0  0
  -29.9740   20.2910   -0.9890 H   0  0  0  0  0  0  0  0  0  0  0  0
  -28.5790   22.1210   -0.2380 H   0  0  0  0  0  0  0  0  0  0  0  0
  -26.3930   22.9330    0.6690 H   0  0  0  0  0  0  0  0  0  0  0  0
  -24.3900   23.7650    1.5830 H   0  0  0  0  0  0  0  0  0  0  0  0
  -24.4910   22.7180    3.6570 H   0  0  0  0  0  0  0  0  0  0  0  0
  -23.0770   21.7420    3.2850 H   0  0  0  0  0  0  0  0  0  0  0  0
  -22.8720   23.4190    3.4930 H   0  0  0  0  0  0  0  0  0  0  0  0
  -22.7630   26.1400   -4.9820 H   0  0  0  0  0  0  0  0  0  0  0  0
  1 25  1  0  0  0  0
  1 29  1  0  0  0  0
  1 30  1  0  0  0  0
  1 31  1  0  0  0  0
  2 21  1  0  0  0  0
  2 23  1  0  0  0  0
  2 26  2  0  0  0  0
  3  4  1  0  0  0  0
  3 23  1  0  0  0  0
  3 32  1  0  0  0  0
  3 33  1  0  0  0  0
  4  5  1  0  0  0  0
  4 34  1  0  0  0  0
  4 35  1  0  0  0  0
  5  6  1  0  0  0  0
  5  9  1  0  0  0  0
  5 36  1  1  0  0  0
  6 24  1  0  0  0  0
  6 27  2  0  0  0  0
  7  8  1  0  0  0  0
  7 24  1  0  0  0  0
  7 37  1  0  0  0  0
  7 38  1  0  0  0  0
  8 28  1  0  0  0  0
  8 39  1  0  0  0  0
  8 40  1  0  0  0  0
  9 10  1  0  0  0  0
  9 41  1  0  0  0  0
  9 42  1  0  0  0  0
 10 23  1  0  0  0  0
 10 43  1  0  0  0  0
 10 44  1  0  0  0  0
 11 13  2  0  0  0  0
 11 20  1  0  0  0  0
 11 45  1  0  0  0  0
 12 15  1  0  0  0  0
 12 16  2  0  0  0  0
 12 25  1  0  0  0  0
 13 14  1  0  0  0  0
 13 46  1  0  0  0  0
 14 15  2  0  0  0  0
 14 18  1  0  0  0  0
 15 47  1  0  0  0  0
 16 17  1  0  0  0  0
 16 48  1  0  0  0  0
 17 18  2  0  0  0  0
 17 49  1  0  0  0  0
 18 19  1  0  0  0  0
 19 20  2  0  0  0  0
 19 50  1  0  0  0  0
 20 21  1  0  0  0  0
 21 22  1  0  0  0  0
 21 51  1  6  0  0  0
 22 52  1  0  0  0  0
 22 53  1  0  0  0  0
 22 54  1  0  0  0  0
 24 55  1  0  0  0  0
M  CHG  1  28  -1
M  END
>  <COMPND>
    title: molecule 1

$$$$
8A6F_ligand0.pdb
 OpenBabel06042612053D

 39 40  0  0  0  0  0  0  0  0999 V2000
   19.8500   23.2730    2.3080 O   0  0  0  0  0  0  0  0  0  0  0  0
   20.4680   23.8210    1.4180 C   0  0  0  0  0  0  0  0  0  0  0  0
   20.1820   25.2620    1.0610 C   0  0  0  0  0  0  0  0  0  0  0  0
   19.0180   25.8290    1.9620 C   0  0  0  0  0  0  0  0  0  0  0  0
   19.6040   25.7400    3.6940 S   0  5  0  0  0  0  0  0  0  0  0  0
   21.5110   23.1770    0.6430 N   0  0  0  0  0  0  0  0  0  0  0  0
   22.3140   23.8570   -0.4700 C   0  0  0  0  0  0  0  0  0  0  0  0
   23.5860   23.1610   -0.9680 C   0  0  0  0  0  0  0  0  0  0  0  0
   24.1730   22.2280    0.0160 C   0  0  0  0  0  0  0  0  0  0  0  0
   23.9320   21.3050   -1.0520 O   0  0  0  0  0  0  0  0  0  0  0  0
   23.3310   21.4140    0.9400 C   0  0  0  0  0  0  0  0  0  0  0  0
   21.8640   21.7450    0.8730 C   0  0  0  0  0  0  0  0  0  0  0  0
   25.6900   21.7580    0.1130 C   0  0  0  0  0  0  0  0  0  0  0  0
   26.4050   22.3910    1.1100 C   0  0  0  0  0  0  0  0  0  0  0  0
   27.7180   22.0620    1.3410 C   0  0  0  0  0  0  0  0  0  0  0  0
   28.3250   21.0800    0.5790 C   0  0  0  0  0  0  0  0  0  0  0  0
   30.0230   20.6880    0.9140 Cl  0  0  0  0  0  0  0  0  0  0  0  0
   27.6220   20.4130   -0.4210 C   0  0  0  0  0  0  0  0  0  0  0  0
   26.2890   20.7480   -0.6450 C   0  0  0  0  0  0  0  0  0  0  0  0
   28.2970   19.3230   -1.2480 C   0  0  0  0  0  0  0  0  0  0  0  0
   29.5420   19.7300   -1.6170 F   0  0  0  0  0  0  0  0  0  0  0  0
   27.5620   19.0690   -2.3790 F   0  0  0  0  0  0  0  0  0  0  0  0
   28.4290   18.1890   -0.4900 F   0  0  0  0  0  0  0  0  0  0  0  0
   19.8620   25.3170    0.0320 H   0  0  0  0  0  0  0  0  0  0  0  0
   21.0840   25.8540    1.2050 H   0  0  0  0  0  0  0  0  0  0  0  0
   18.1050   25.2440    1.8460 H   0  0  0  0  0  0  0  0  0  0  0  0
   18.7900   26.8610    1.6990 H   0  0  0  0  0  0  0  0  0  0  0  0
   22.6320   24.8190   -0.0730 H   0  0  0  0  0  0  0  0  0  0  0  0
   21.6550   24.0780   -1.3060 H   0  0  0  0  0  0  0  0  0  0  0  0
   24.3290   23.9590   -0.9810 H   0  0  0  0  0  0  0  0  0  0  0  0
   23.5080   23.0290   -2.0690 H   0  0  0  0  0  0  0  0  0  0  0  0
   23.8900   20.4150   -0.7160 H   0  0  0  0  0  0  0  0  0  0  0  0
   23.6450   21.7150    1.9400 H   0  0  0  0  0  0  0  0  0  0  0  0
   23.5110   20.3390    0.9630 H   0  0  0  0  0  0  0  0  0  0  0  0
   21.4030   21.1700    0.0690 H   0  0  0  0  0  0  0  0  0  0  0  0
   21.4030   21.3910    1.7920 H   0  0  0  0  0  0  0  0  0  0  0  0
   25.9360   23.1550    1.7130 H   0  0  0  0  0  0  0  0  0  0  0  0
   28.2730   22.5660    2.1190 H   0  0  0  0  0  0  0  0  0  0  0  0
   25.8070   20.1810   -1.4250 H   0  0  0  0  0  0  0  0  0  0  0  0
  1  2  2  0  0  0  0
  2  3  1  0  0  0  0
  2  6  1  0  0  0  0
  3  4  1  0  0  0  0
  3 24  1  0  0  0  0
  3 25  1  0  0  0  0
  4  5  1  0  0  0  0
  4 26  1  0  0  0  0
  4 27  1  0  0  0  0
  6  7  1  0  0  0  0
  6 12  1  0  0  0  0
  7  8  1  0  0  0  0
  7 28  1  0  0  0  0
  7 29  1  0  0  0  0
  8  9  1  0  0  0  0
  8 30  1  0  0  0  0
  8 31  1  0  0  0  0
  9 10  1  0  0  0  0
  9 11  1  0  0  0  0
  9 13  1  0  0  0  0
 10 32  1  0  0  0  0
 11 12  1  0  0  0  0
 11 33  1  0  0  0  0
 11 34  1  0  0  0  0
 12 35  1  0  0  0  0
 12 36  1  0  0  0  0
 13 14  2  0  0  0  0
 13 19  1  0  0  0  0
 14 15  1  0  0  0  0
 14 37  1  0  0  0  0
 15 16  2  0  0  0  0
 15 38  1  0  0  0  0
 16 17  1  0  0  0  0
 16 18  1  0  0  0  0
 18 19  2  0  0  0  0
 18 20  1  0  0  0  0
 19 39  1  0  0  0  0
 20 21  1  0  0  0  0
 20 22  1  0  0  0  0
 20 23  1  0  0  0  0
M  CHG  1   5  -1
M  END
>  <COMPND>
    title: molecule 1

$$$$
8A6H_ligand0.pdb
 OpenBabel06042612053D

 39 40  0  0  0  0  0  0  0  0999 V2000
   28.5140  -20.3620   -0.0780 C   0  0  0  0  0  0  0  0  0  0  0  0
   27.4530  -21.2690   -0.6580 C   0  0  0  0  0  0  0  0  0  0  0  0
   26.1610  -21.3170   -0.1450 C   0  0  0  0  0  0  0  0  0  0  0  0
   25.2940  -22.1860   -0.7580 C   0  0  0  0  0  0  0  0  0  0  0  0
   21.8520  -23.5580    0.6070 C   0  0  0  0  0  0  0  0  0  0  0  0
   25.6610  -22.9680   -1.8460 C   0  0  0  0  0  0  0  0  0  0  0  0
   26.9450  -22.9080   -2.3350 C   0  0  0  0  0  0  0  0  0  0  0  0
   27.8370  -22.0580   -1.7240 C   0  0  0  0  0  0  0  0  0  0  0  0
   18.9170  -25.7530   -1.9500 C   0  0  0  0  0  0  0  0  0  0  0  0
   19.9070  -25.0760   -0.9980 C   0  0  0  0  0  0  0  0  0  0  0  0
   20.1740  -23.6480   -1.3950 C   0  0  0  0  0  0  0  0  0  0  0  0
   21.4820  -21.5320   -0.8340 C   0  0  0  0  0  0  0  0  0  0  0  0
   22.9520  -21.3190   -1.0410 C   0  0  0  0  0  0  0  0  0  0  0  0
   23.7880  -22.3570   -0.3830 C   0  0  0  0  0  0  0  0  0  0  0  0
   23.3640  -23.4280    0.5220 C   0  0  0  0  0  0  0  0  0  0  0  0
   29.6310  -21.1150    0.0000 F   0  0  0  0  0  0  0  0  0  0  0  0
   28.1390  -19.8080    1.1120 F   0  0  0  0  0  0  0  0  0  0  0  0
   28.7520  -19.3490   -0.9580 F   0  0  0  0  0  0  0  0  0  0  0  0
   21.1320  -22.9570   -0.5810 N   0  0  0  0  0  0  0  0  0  0  0  0
   23.8360  -21.5060    0.7760 O   0  0  0  0  0  0  0  0  0  0  0  0
   19.6130  -23.1460   -2.3470 O   0  0  0  0  0  0  0  0  0  0  0  0
   19.4580  -25.6690   -3.6560 S   0  5  0  0  0  0  0  0  0  0  0  0
   25.9220  -20.6480    0.6680 H   0  0  0  0  0  0  0  0  0  0  0  0
   21.6050  -22.8810    1.4070 H   0  0  0  0  0  0  0  0  0  0  0  0
   21.5170  -24.5070    0.9590 H   0  0  0  0  0  0  0  0  0  0  0  0
   24.9440  -23.6260   -2.3160 H   0  0  0  0  0  0  0  0  0  0  0  0
   27.2400  -23.5090   -3.1820 H   0  0  0  0  0  0  0  0  0  0  0  0
   28.8410  -21.9900   -2.1140 H   0  0  0  0  0  0  0  0  0  0  0  0
   17.9390  -25.2780   -1.8700 H   0  0  0  0  0  0  0  0  0  0  0  0
   18.7850  -26.7990   -1.6740 H   0  0  0  0  0  0  0  0  0  0  0  0
   20.8550  -25.6070   -1.0770 H   0  0  0  0  0  0  0  0  0  0  0  0
   19.5500  -25.1800    0.0140 H   0  0  0  0  0  0  0  0  0  0  0  0
   20.9600  -21.2130   -1.7190 H   0  0  0  0  0  0  0  0  0  0  0  0
   21.1200  -20.9250   -0.0030 H   0  0  0  0  0  0  0  0  0  0  0  0
   23.2490  -20.2690   -0.9630 H   0  0  0  0  0  0  0  0  0  0  0  0
   23.1000  -21.4980   -2.1070 H   0  0  0  0  0  0  0  0  0  0  0  0
   23.6300  -24.3170   -0.0510 H   0  0  0  0  0  0  0  0  0  0  0  0
   23.9260  -23.6630    1.4140 H   0  0  0  0  0  0  0  0  0  0  0  0
   23.8780  -20.6030    0.4910 H   0  0  0  0  0  0  0  0  0  0  0  0
  1  2  1  0  0  0  0
  1 16  1  0  0  0  0
  1 17  1  0  0  0  0
  1 18  1  0  0  0  0
  2  3  2  0  0  0  0
  2  8  1  0  0  0  0
  3  4  1  0  0  0  0
  3 23  1  0  0  0  0
  4  6  2  0  0  0  0
  4 14  1  0  0  0  0
  5 15  1  0  0  0  0
  5 19  1  0  0  0  0
  5 24  1  0  0  0  0
  5 25  1  0  0  0  0
  6  7  1  0  0  0  0
  6 26  1  0  0  0  0
  7  8  2  0  0  0  0
  7 27  1  0  0  0  0
  8 28  1  0  0  0  0
  9 10  1  0  0  0  0
  9 22  1  0  0  0  0
  9 29  1  0  0  0  0
  9 30  1  0  0  0  0
 10 11  1  0  0  0  0
 10 31  1  0  0  0  0
 10 32  1  0  0  0  0
 11 19  1  0  0  0  0
 11 21  2  0  0  0  0
 12 13  1  0  0  0  0
 12 19  1  0  0  0  0
 12 33  1  0  0  0  0
 12 34  1  0  0  0  0
 13 14  1  0  0  0  0
 13 35  1  0  0  0  0
 13 36  1  0  0  0  0
 14 15  1  0  0  0  0
 14 20  1  0  0  0  0
 15 37  1  0  0  0  0
 15 38  1  0  0  0  0
 20 39  1  0  0  0  0
M  CHG  1  22  -1
M  END
>  <COMPND>
    title: molecule 1

$$$$
8ADM_ligand0.pdb
 OpenBabel06042612053D

 49 50  0  0  0  0  0  0  0  0999 V2000
    5.4790   29.6340   15.9780 C   0  0  0  0  0  0  0  0  0  0  0  0
    6.5220   30.7560   16.0190 C   0  0  0  0  0  0  0  0  0  0  0  0
    4.4960   29.2150   12.7250 C   0  0  0  0  0  0  0  0  0  0  0  0
    4.3680   30.6640   13.0110 C   0  0  0  0  0  0  0  0  0  0  0  0
    2.3690   29.1580   11.3590 C   0  0  0  0  0  0  0  0  0  0  0  0
    2.7450   31.0170    9.4900 C   0  0  0  0  0  0  0  0  0  0  0  0
    2.1580   30.2080    8.2770 C   0  0  0  0  0  0  0  0  0  0  0  0
    0.6320   30.2400    8.3780 C   0  0  0  0  0  0  0  0  0  0  0  0
    6.1720   28.4970    8.0100 C   0  0  0  0  0  0  0  0  0  0  0  0
    4.9170   28.9030    8.4410 C   0  0  0  0  0  0  0  0  0  0  0  0
    3.7850   28.4370    7.7960 C   0  0  0  0  0  0  0  0  0  0  0  0
    2.5760   30.8570    6.9500 C   0  0  0  0  0  0  0  0  0  0  0  0
    5.3690   28.3540   13.6550 C   0  0  0  0  0  0  0  0  0  0  0  0
    5.1570   27.1340    6.2940 C   0  0  0  0  0  0  0  0  0  0  0  0
    6.2880   27.6180    6.9450 C   0  0  0  0  0  0  0  0  0  0  0  0
    3.3950   31.3570   12.0300 C   0  0  0  0  0  0  0  0  0  0  0  0
    3.1050   28.6580   12.6090 C   0  0  0  0  0  0  0  0  0  0  0  0
    3.8980   27.5410    6.7250 C   0  0  0  0  0  0  0  0  0  0  0  0
    2.8230   30.5230   10.8970 N   0  0  0  0  0  0  0  0  0  0  0  0
    5.8210   28.5460   15.0510 N   0  0  0  0  0  0  0  0  0  0  0  0
    2.5160   28.8370    8.2620 O   0  0  0  0  0  0  0  0  0  0  0  0
    3.1340   32.1120    9.2720 O   0  0  0  0  0  0  0  0  0  0  0  0
    5.7990   27.3740   13.1390 O   0  0  0  0  0  0  0  0  0  0  0  0
    8.1050   30.0400   16.4980 S   0  5  0  0  0  0  0  0  0  0  0  0
    7.9290   27.1240    6.4400 Cl  0  0  0  0  0  0  0  0  0  0  0  0
    4.4740   30.0090   15.8110 H   0  0  0  0  0  0  0  0  0  0  0  0
    5.4280   29.1830   16.9700 H   0  0  0  0  0  0  0  0  0  0  0  0
    6.2420   31.5190   16.7450 H   0  0  0  0  0  0  0  0  0  0  0  0
    6.5990   31.2460   15.0530 H   0  0  0  0  0  0  0  0  0  0  0  0
    4.9710   29.1280   11.7450 H   0  0  0  0  0  0  0  0  0  0  0  0
    5.3470   31.1390   12.9530 H   0  0  0  0  0  0  0  0  0  0  0  0
    3.9890   30.8560   14.0080 H   0  0  0  0  0  0  0  0  0  0  0  0
    1.2920   29.1670   11.5290 H   0  0  0  0  0  0  0  0  0  0  0  0
    2.5500   28.4290   10.5750 H   0  0  0  0  0  0  0  0  0  0  0  0
    0.1740   29.6890    7.5560 H   0  0  0  0  0  0  0  0  0  0  0  0
    0.2820   29.7750    9.3010 H   0  0  0  0  0  0  0  0  0  0  0  0
    0.2430   31.2590    8.3580 H   0  0  0  0  0  0  0  0  0  0  0  0
    7.0560   28.8640    8.5100 H   0  0  0  0  0  0  0  0  0  0  0  0
    4.8630   29.5560    9.2950 H   0  0  0  0  0  0  0  0  0  0  0  0
    2.2950   30.2300    6.1060 H   0  0  0  0  0  0  0  0  0  0  0  0
    2.0810   31.8170    6.8040 H   0  0  0  0  0  0  0  0  0  0  0  0
    3.6520   31.0270    6.8810 H   0  0  0  0  0  0  0  0  0  0  0  0
    5.2550   26.4480    5.4660 H   0  0  0  0  0  0  0  0  0  0  0  0
    3.8910   32.2430   11.6350 H   0  0  0  0  0  0  0  0  0  0  0  0
    2.5420   31.7390   12.5920 H   0  0  0  0  0  0  0  0  0  0  0  0
    2.5290   28.9300   13.4960 H   0  0  0  0  0  0  0  0  0  0  0  0
    3.1110   27.5670   12.5930 H   0  0  0  0  0  0  0  0  0  0  0  0
    3.0100   27.1780    6.2310 H   0  0  0  0  0  0  0  0  0  0  0  0
    6.4480   27.8430   15.4170 H   0  0  0  0  0  0  0  0  0  0  0  0
  1  2  1  0  0  0  0
  1 20  1  0  0  0  0
  1 26  1  0  0  0  0
  1 27  1  0  0  0  0
  2 24  1  0  0  0  0
  2 28  1  0  0  0  0
  2 29  1  0  0  0  0
  3  4  1  0  0  0  0
  3 13  1  0  0  0  0
  3 17  1  0  0  0  0
  3 30  1  0  0  0  0
  4 16  1  0  0  0  0
  4 31  1  0  0  0  0
  4 32  1  0  0  0  0
  5 17  1  0  0  0  0
  5 19  1  0  0  0  0
  5 33  1  0  0  0  0
  5 34  1  0  0  0  0
  6  7  1  0  0  0  0
  6 19  1  0  0  0  0
  6 22  2  0  0  0  0
  7  8  1  0  0  0  0
  7 12  1  0  0  0  0
  7 21  1  0  0  0  0
  8 35  1  0  0  0  0
  8 36  1  0  0  0  0
  8 37  1  0  0  0  0
  9 10  2  0  0  0  0
  9 15  1  0  0  0  0
  9 38  1  0  0  0  0
 10 11  1  0  0  0  0
 10 39  1  0  0  0  0
 11 18  2  0  0  0  0
 11 21  1  0  0  0  0
 12 40  1  0  0  0  0
 12 41  1  0  0  0  0
 12 42  1  0  0  0  0
 13 20  1  0  0  0  0
 13 23  2  0  0  0  0
 14 15  2  0  0  0  0
 14 18  1  0  0  0  0
 14 43  1  0  0  0  0
 15 25  1  0  0  0  0
 16 19  1  0  0  0  0
 16 44  1  0  0  0  0
 16 45  1  0  0  0  0
 17 46  1  0  0  0  0
 17 47  1  0  0  0  0
 18 48  1  0  0  0  0
 20 49  1  0  0  0  0
M  CHG  1  24  -1
M  END
>  <COMPND>
    title: molecule 1

$$$$
8AFN_ligand0.pdb
 OpenBabel06042612053D

 49 50  0  0  0  0  0  0  0  0999 V2000
   21.4480   23.2870   -3.1230 C   0  0  0  0  0  0  0  0  0  0  0  0
   21.8460   24.6610   -2.6480 C   0  0  0  0  0  0  0  0  0  0  0  0
   17.9210   22.0340   -2.2840 C   0  0  0  0  0  0  0  0  0  0  0  0
   17.7890   20.5570   -2.6820 C   0  0  0  0  0  0  0  0  0  0  0  0
   15.6390   21.8420   -1.2480 C   0  0  0  0  0  0  0  0  0  0  0  0
   15.0270   19.4230   -0.8640 C   0  0  0  0  0  0  0  0  0  0  0  0
   14.2070   19.7650    0.3660 C   0  0  0  0  0  0  0  0  0  0  0  0
   12.8930   20.4070   -0.0700 C   0  0  0  0  0  0  0  0  0  0  0  0
   18.3280   19.7420    1.7240 C   0  0  0  0  0  0  0  0  0  0  0  0
   17.0090   19.6560    1.3130 C   0  0  0  0  0  0  0  0  0  0  0  0
   16.1110   20.6580    1.6580 C   0  0  0  0  0  0  0  0  0  0  0  0
   13.9360   18.5120    1.1840 C   0  0  0  0  0  0  0  0  0  0  0  0
   19.3970   22.3480   -2.0940 C   0  0  0  0  0  0  0  0  0  0  0  0
   17.8620   21.8250    2.8150 C   0  0  0  0  0  0  0  0  0  0  0  0
   18.7360   20.8280    2.4600 C   0  0  0  0  0  0  0  0  0  0  0  0
   16.3500   20.1080   -2.8130 C   0  0  0  0  0  0  0  0  0  0  0  0
   17.0790   22.3000   -1.0360 C   0  0  0  0  0  0  0  0  0  0  0  0
   16.5450   21.7470    2.4020 C   0  0  0  0  0  0  0  0  0  0  0  0
   15.6050   20.4120   -1.5870 N   0  0  0  0  0  0  0  0  0  0  0  0
   20.0070   23.0860   -3.0260 N   0  0  0  0  0  0  0  0  0  0  0  0
   14.7830   20.7210    1.2910 O   0  0  0  0  0  0  0  0  0  0  0  0
   15.1690   18.2380   -1.1530 O   0  0  0  0  0  0  0  0  0  0  0  0
   20.0530   21.8860   -1.1550 O   0  0  0  0  0  0  0  0  0  0  0  0
   21.1390   26.0100   -3.6310 S   0  5  0  0  0  0  0  0  0  0  0  0
   20.3950   20.9370    2.9700 Cl  0  0  0  0  0  0  0  0  0  0  0  0
   22.0070   22.5340   -2.5650 H   0  0  0  0  0  0  0  0  0  0  0  0
   21.7030   23.1370   -4.1660 H   0  0  0  0  0  0  0  0  0  0  0  0
   22.9310   24.7500   -2.6960 H   0  0  0  0  0  0  0  0  0  0  0  0
   21.5690   24.8020   -1.6030 H   0  0  0  0  0  0  0  0  0  0  0  0
   17.5320   22.6500   -3.0960 H   0  0  0  0  0  0  0  0  0  0  0  0
   18.2800   19.9250   -1.9400 H   0  0  0  0  0  0  0  0  0  0  0  0
   18.3080   20.3770   -3.6250 H   0  0  0  0  0  0  0  0  0  0  0  0
   15.2210   22.3840   -2.0980 H   0  0  0  0  0  0  0  0  0  0  0  0
   15.0260   22.1730   -0.4210 H   0  0  0  0  0  0  0  0  0  0  0  0
   12.2430   20.5890    0.7840 H   0  0  0  0  0  0  0  0  0  0  0  0
   13.0160   21.3630   -0.5770 H   0  0  0  0  0  0  0  0  0  0  0  0
   12.3410   19.7570   -0.7510 H   0  0  0  0  0  0  0  0  0  0  0  0
   19.0270   18.9590    1.4720 H   0  0  0  0  0  0  0  0  0  0  0  0
   16.7540   18.7560    0.7870 H   0  0  0  0  0  0  0  0  0  0  0  0
   13.3720   18.7580    2.0840 H   0  0  0  0  0  0  0  0  0  0  0  0
   13.3370   17.7860    0.6310 H   0  0  0  0  0  0  0  0  0  0  0  0
   14.8390   18.0020    1.5180 H   0  0  0  0  0  0  0  0  0  0  0  0
   18.1990   22.6660    3.4000 H   0  0  0  0  0  0  0  0  0  0  0  0
   16.3200   19.0570   -3.1020 H   0  0  0  0  0  0  0  0  0  0  0  0
   15.8770   20.6430   -3.6380 H   0  0  0  0  0  0  0  0  0  0  0  0
   17.0880   23.3670   -0.8100 H   0  0  0  0  0  0  0  0  0  0  0  0
   17.5370   21.8110   -0.1840 H   0  0  0  0  0  0  0  0  0  0  0  0
   15.8480   22.5250    2.6580 H   0  0  0  0  0  0  0  0  0  0  0  0
   19.4470   23.4300   -3.7970 H   0  0  0  0  0  0  0  0  0  0  0  0
  1  2  1  0  0  0  0
  1 20  1  0  0  0  0
  1 26  1  0  0  0  0
  1 27  1  0  0  0  0
  2 24  1  0  0  0  0
  2 28  1  0  0  0  0
  2 29  1  0  0  0  0
  3  4  1  0  0  0  0
  3 13  1  0  0  0  0
  3 17  1  0  0  0  0
  3 30  1  0  0  0  0
  4 16  1  0  0  0  0
  4 31  1  0  0  0  0
  4 32  1  0  0  0  0
  5 17  1  0  0  0  0
  5 19  1  0  0  0  0
  5 33  1  0  0  0  0
  5 34  1  0  0  0  0
  6  7  1  0  0  0  0
  6 19  1  0  0  0  0
  6 22  2  0  0  0  0
  7  8  1  0  0  0  0
  7 12  1  0  0  0  0
  7 21  1  0  0  0  0
  8 35  1  0  0  0  0
  8 36  1  0  0  0  0
  8 37  1  0  0  0  0
  9 10  2  0  0  0  0
  9 15  1  0  0  0  0
  9 38  1  0  0  0  0
 10 11  1  0  0  0  0
 10 39  1  0  0  0  0
 11 18  2  0  0  0  0
 11 21  1  0  0  0  0
 12 40  1  0  0  0  0
 12 41  1  0  0  0  0
 12 42  1  0  0  0  0
 13 20  1  0  0  0  0
 13 23  2  0  0  0  0
 14 15  2  0  0  0  0
 14 18  1  0  0  0  0
 14 43  1  0  0  0  0
 15 25  1  0  0  0  0
 16 19  1  0  0  0  0
 16 44  1  0  0  0  0
 16 45  1  0  0  0  0
 17 46  1  0  0  0  0
 17 47  1  0  0  0  0
 18 48  1  0  0  0  0
 20 49  1  0  0  0  0
M  CHG  1  24  -1
M  END
>  <COMPND>
    title: molecule 1

$$$$
8AI0_ligand0.pdb
 OpenBabel06042612053D

 49 50  0  0  0  0  0  0  0  0999 V2000
  -15.1530  -19.3810    1.0210 C   0  0  0  0  0  0  0  0  0  0  0  0
  -16.3570  -19.6340    0.1160 C   0  0  0  0  0  0  0  0  0  0  0  0
  -18.1240  -20.4270    1.7880 C   0  0  0  0  0  0  0  0  0  0  0  0
  -19.4650  -20.3680    2.1370 C   0  0  0  0  0  0  0  0  0  0  0  0
  -20.0300  -21.3380    2.9380 C   0  0  0  0  0  0  0  0  0  0  0  0
  -19.2610  -22.3910    3.3990 C   0  0  0  0  0  0  0  0  0  0  0  0
  -17.9230  -22.4610    3.0460 C   0  0  0  0  0  0  0  0  0  0  0  0
  -17.3530  -21.4930    2.2570 C   0  0  0  0  0  0  0  0  0  0  0  0
  -16.2840  -21.0710   -0.4700 C   0  0  0  0  0  0  0  0  0  0  0  0
  -18.7210  -21.1460   -1.4500 C   0  0  0  0  0  0  0  0  0  0  0  0
  -19.9290  -22.0890   -1.2860 C   0  0  0  0  0  0  0  0  0  0  0  0
  -19.8620  -23.3670   -2.0380 C   0  0  0  0  0  0  0  0  0  0  0  0
  -18.5910  -24.0190   -1.6680 C   0  0  0  0  0  0  0  0  0  0  0  0
  -17.3280  -23.1410   -1.7110 C   0  0  0  0  0  0  0  0  0  0  0  0
  -21.0290  -24.3110   -1.7200 C   0  0  0  0  0  0  0  0  0  0  0  0
  -22.0570  -26.5550   -2.3780 C   0  0  0  0  0  0  0  0  0  0  0  0
  -21.9610  -27.7840   -3.3050 C   0  0  0  0  0  0  0  0  0  0  0  0
  -16.2920  -18.6010   -1.0030 C   0  0  0  0  0  0  0  0  0  0  0  0
  -17.5490  -19.3970    0.9370 N   0  0  0  0  0  0  0  0  0  0  0  0
  -17.3880  -21.7410   -1.1640 N   0  0  0  0  0  0  0  0  0  0  0  0
  -21.0290  -25.5160   -2.5460 N   0  0  0  0  0  0  0  0  0  0  0  0
  -22.9560  -26.4780   -1.5690 O   0  0  0  0  0  0  0  0  0  0  0  0
  -15.2800  -21.6740   -0.3030 O   0  0  0  0  0  0  0  0  0  0  0  0
  -15.2040  -18.3800    1.4530 H   0  0  0  0  0  0  0  0  0  0  0  0
  -15.0390  -20.0600    1.8600 H   0  0  0  0  0  0  0  0  0  0  0  0
  -14.2190  -19.4130    0.4590 H   0  0  0  0  0  0  0  0  0  0  0  0
  -20.0800  -19.5540    1.7800 H   0  0  0  0  0  0  0  0  0  0  0  0
  -21.0750  -21.2820    3.1950 H   0  0  0  0  0  0  0  0  0  0  0  0
  -19.6990  -23.1540    4.0260 H   0  0  0  0  0  0  0  0  0  0  0  0
  -17.3220  -23.2620    3.4230 H   0  0  0  0  0  0  0  0  0  0  0  0
  -16.3060  -21.6160    2.0610 H   0  0  0  0  0  0  0  0  0  0  0  0
  -18.9200  -20.2430   -0.8890 H   0  0  0  0  0  0  0  0  0  0  0  0
  -18.6940  -20.8130   -2.4880 H   0  0  0  0  0  0  0  0  0  0  0  0
  -20.8190  -21.4870   -1.2420 H   0  0  0  0  0  0  0  0  0  0  0  0
  -19.8820  -22.3850   -0.2360 H   0  0  0  0  0  0  0  0  0  0  0  0
  -19.8190  -23.1720   -3.1030 H   0  0  0  0  0  0  0  0  0  0  0  0
  -18.4240  -24.8870   -2.3050 H   0  0  0  0  0  0  0  0  0  0  0  0
  -18.6680  -24.4100   -0.6520 H   0  0  0  0  0  0  0  0  0  0  0  0
  -17.0250  -23.0390   -2.7540 H   0  0  0  0  0  0  0  0  0  0  0  0
  -16.5170  -23.6890   -1.2300 H   0  0  0  0  0  0  0  0  0  0  0  0
  -22.0210  -23.8750   -1.7520 H   0  0  0  0  0  0  0  0  0  0  0  0
  -20.9390  -24.6360   -0.6830 H   0  0  0  0  0  0  0  0  0  0  0  0
  -21.0280  -28.3140   -3.1120 H   0  0  0  0  0  0  0  0  0  0  0  0
  -22.7740  -28.3700   -3.0320 H   0  0  0  0  0  0  0  0  0  0  0  0
  -17.1600  -18.6630   -1.6590 H   0  0  0  0  0  0  0  0  0  0  0  0
  -16.2590  -17.5840   -0.6090 H   0  0  0  0  0  0  0  0  0  0  0  0
  -15.4060  -18.7380   -1.6250 H   0  0  0  0  0  0  0  0  0  0  0  0
  -18.1350  -18.6180    0.6770 H   0  0  0  0  0  0  0  0  0  0  0  0
  -20.3290  -25.6130   -3.2680 H   0  0  0  0  0  0  0  0  0  0  0  0
  1  2  1  0  0  0  0
  1 24  1  0  0  0  0
  1 25  1  0  0  0  0
  1 26  1  0  0  0  0
  2  9  1  0  0  0  0
  2 18  1  0  0  0  0
  2 19  1  0  0  0  0
  3  4  2  0  0  0  0
  3  8  1  0  0  0  0
  3 19  1  0  0  0  0
  4  5  1  0  0  0  0
  4 27  1  0  0  0  0
  5  6  2  0  0  0  0
  5 28  1  0  0  0  0
  6  7  1  0  0  0  0
  6 29  1  0  0  0  0
  7  8  2  0  0  0  0
  7 30  1  0  0  0  0
  8 31  1  0  0  0  0
  9 20  1  0  0  0  0
  9 23  2  0  0  0  0
 10 11  1  0  0  0  0
 10 20  1  0  0  0  0
 10 32  1  0  0  0  0
 10 33  1  0  0  0  0
 11 12  1  0  0  0  0
 11 34  1  0  0  0  0
 11 35  1  0  0  0  0
 12 13  1  0  0  0  0
 12 15  1  0  0  0  0
 12 36  1  0  0  0  0
 13 14  1  0  0  0  0
 13 37  1  0  0  0  0
 13 38  1  0  0  0  0
 14 20  1  0  0  0  0
 14 39  1  0  0  0  0
 14 40  1  0  0  0  0
 15 21  1  0  0  0  0
 15 41  1  0  0  0  0
 15 42  1  0  0  0  0
 16 17  1  0  0  0  0
 16 21  1  0  0  0  0
 16 22  2  0  0  0  0
 17 43  1  0  0  0  0
 17 44  1  0  0  0  0
 18 45  1  0  0  0  0
 18 46  1  0  0  0  0
 18 47  1  0  0  0  0
 19 48  1  0  0  0  0
 21 49  1  0  0  0  0
M  END
>  <COMPND>
    title: molecule 1

$$$$
8ALR_ligand0.pdb
 OpenBabel06042612053D

 56 58  0  0  0  0  0  0  0  0999 V2000
   17.3300   19.4830    0.8230 N   0  0  0  0  0  0  0  0  0  0  0  0
   17.9410   20.4210    1.6860 C   0  0  0  0  0  0  0  0  0  0  0  0
   17.2340   21.5330    2.1790 C   0  0  0  0  0  0  0  0  0  0  0  0
   17.8510   22.4400    3.0270 C   0  0  0  0  0  0  0  0  0  0  0  0
   19.1900   22.3000    3.3300 C   0  0  0  0  0  0  0  0  0  0  0  0
   19.8930   21.2070    2.8700 C   0  0  0  0  0  0  0  0  0  0  0  0
   19.2950   20.2770    2.0310 C   0  0  0  0  0  0  0  0  0  0  0  0
   14.8640   19.5620    1.0170 C   0  0  0  0  0  0  0  0  0  0  0  0
   14.9360   21.8270   -0.2740 O   0  0  0  0  0  0  0  0  0  0  0  0
   21.7010   27.0220   -3.6760 C   0  0  0  0  0  0  0  0  0  0  0  0
   21.8680   26.0270   -2.5440 C   0  0  0  0  0  0  0  0  0  0  0  0
   20.2870   24.2030   -1.6940 C   0  0  0  0  0  0  0  0  0  0  0  0
   18.9010   23.7910   -2.2240 C   0  0  0  0  0  0  0  0  0  0  0  0
   18.6680   22.3470   -2.6760 C   0  0  0  0  0  0  0  0  0  0  0  0
   18.2810   21.4110   -1.5440 C   0  0  0  0  0  0  0  0  0  0  0  0
   15.9810   21.1920   -0.4570 C   0  0  0  0  0  0  0  0  0  0  0  0
   16.0740   19.7480    0.0700 C   0  0  0  0  0  0  0  0  0  0  0  0
   14.7200   18.1270    1.4900 C   0  0  0  0  0  0  0  0  0  0  0  0
   14.5140   17.2180    0.3250 C   0  0  0  0  0  0  0  0  0  0  0  0
   15.6790   17.3250   -0.6500 C   0  0  0  0  0  0  0  0  0  0  0  0
   15.9220   18.7610   -1.1070 C   0  0  0  0  0  0  0  0  0  0  0  0
   17.2210   23.2700   -0.3600 C   0  0  0  0  0  0  0  0  0  0  0  0
   17.7030   24.2630   -1.4030 C   0  0  0  0  0  0  0  0  0  0  0  0
   20.8140   25.2000   -2.6310 N   0  0  0  0  0  0  0  0  0  0  0  0
   17.0650   21.8900   -0.8680 N   0  0  0  0  0  0  0  0  0  0  0  0
   22.8650   26.0370   -1.6960 O   0  0  0  0  0  0  0  0  0  0  0  0
   17.9190   18.7500    0.4540 H   0  0  0  0  0  0  0  0  0  0  0  0
   16.1940   21.7270    2.0070 H   0  0  0  0  0  0  0  0  0  0  0  0
   17.2990   23.2560    3.4460 H   0  0  0  0  0  0  0  0  0  0  0  0
   19.6750   23.0250    3.9690 H   0  0  0  0  0  0  0  0  0  0  0  0
   20.9330   21.0870    3.1380 H   0  0  0  0  0  0  0  0  0  0  0  0
   19.8680   19.4380    1.6630 H   0  0  0  0  0  0  0  0  0  0  0  0
   13.9240   19.7980    0.5170 H   0  0  0  0  0  0  0  0  0  0  0  0
   14.8920   20.1870    1.9040 H   0  0  0  0  0  0  0  0  0  0  0  0
   20.7780   27.5980   -3.5920 H   0  0  0  0  0  0  0  0  0  0  0  0
   22.5390   27.6770   -3.7220 H   0  0  0  0  0  0  0  0  0  0  0  0
   20.9490   23.4250   -1.3440 H   0  0  0  0  0  0  0  0  0  0  0  0
   20.1340   24.7560   -0.7710 H   0  0  0  0  0  0  0  0  0  0  0  0
   18.7640   24.3410   -3.1580 H   0  0  0  0  0  0  0  0  0  0  0  0
   19.3470   21.9740   -3.4230 H   0  0  0  0  0  0  0  0  0  0  0  0
   17.7670   22.3890   -3.2920 H   0  0  0  0  0  0  0  0  0  0  0  0
   19.0470   21.3480   -0.7750 H   0  0  0  0  0  0  0  0  0  0  0  0
   18.1390   20.4130   -1.9470 H   0  0  0  0  0  0  0  0  0  0  0  0
   13.8680   18.0470    2.1670 H   0  0  0  0  0  0  0  0  0  0  0  0
   15.5950   17.8130    2.0570 H   0  0  0  0  0  0  0  0  0  0  0  0
   13.5830   17.4730   -0.1840 H   0  0  0  0  0  0  0  0  0  0  0  0
   14.4020   16.1880    0.6630 H   0  0  0  0  0  0  0  0  0  0  0  0
   15.4920   16.6910   -1.5170 H   0  0  0  0  0  0  0  0  0  0  0  0
   16.5820   16.9330   -0.1790 H   0  0  0  0  0  0  0  0  0  0  0  0
   16.7990   18.7680   -1.7520 H   0  0  0  0  0  0  0  0  0  0  0  0
   15.0850   19.0660   -1.7380 H   0  0  0  0  0  0  0  0  0  0  0  0
   16.3670   23.6330    0.1910 H   0  0  0  0  0  0  0  0  0  0  0  0
   18.0180   23.2400    0.3820 H   0  0  0  0  0  0  0  0  0  0  0  0
   16.8680   24.4830   -2.0700 H   0  0  0  0  0  0  0  0  0  0  0  0
   17.9510   25.1870   -0.8910 H   0  0  0  0  0  0  0  0  0  0  0  0
   20.2230   25.3610   -3.4350 H   0  0  0  0  0  0  0  0  0  0  0  0
  1  2  1  0  0  0  0
  1 17  1  0  0  0  0
  1 27  1  0  0  0  0
  2  3  2  0  0  0  0
  2  7  1  0  0  0  0
  3  4  1  0  0  0  0
  3 28  1  0  0  0  0
  4  5  2  0  0  0  0
  4 29  1  0  0  0  0
  5  6  1  0  0  0  0
  5 30  1  0  0  0  0
  6  7  2  0  0  0  0
  6 31  1  0  0  0  0
  7 32  1  0  0  0  0
  8 17  1  0  0  0  0
  8 18  1  0  0  0  0
  8 33  1  0  0  0  0
  8 34  1  0  0  0  0
  9 16  2  0  0  0  0
 10 11  1  0  0  0  0
 10 35  1  0  0  0  0
 10 36  1  0  0  0  0
 11 24  1  0  0  0  0
 11 26  2  0  0  0  0
 12 13  1  0  0  0  0
 12 24  1  0  0  0  0
 12 37  1  0  0  0  0
 12 38  1  0  0  0  0
 13 14  1  0  0  0  0
 13 23  1  0  0  0  0
 13 39  1  0  0  0  0
 14 15  1  0  0  0  0
 14 40  1  0  0  0  0
 14 41  1  0  0  0  0
 15 25  1  0  0  0  0
 15 42  1  0  0  0  0
 15 43  1  0  0  0  0
 16 17  1  0  0  0  0
 16 25  1  0  0  0  0
 17 21  1  0  0  0  0
 18 19  1  0  0  0  0
 18 44  1  0  0  0  0
 18 45  1  0  0  0  0
 19 20  1  0  0  0  0
 19 46  1  0  0  0  0
 19 47  1  0  0  0  0
 20 21  1  0  0  0  0
 20 48  1  0  0  0  0
 20 49  1  0  0  0  0
 21 50  1  0  0  0  0
 21 51  1  0  0  0  0
 22 23  1  0  0  0  0
 22 25  1  0  0  0  0
 22 52  1  0  0  0  0
 22 53  1  0  0  0  0
 23 54  1  0  0  0  0
 23 55  1  0  0  0  0
 24 56  1  0  0  0  0
M  END
>  <COMPND>
    title: molecule 1

$$$$
8ALT_ligand0.pdb
 OpenBabel06042612053D

 56 58  0  0  0  0  0  0  0  0999 V2000
   19.4170   20.7770    2.4380 C   0  0  0  0  0  0  0  0  0  0  0  0
   15.2470   16.9530   -0.9500 C   0  0  0  0  0  0  0  0  0  0  0  0
   14.2750   16.7150    0.1640 C   0  0  0  0  0  0  0  0  0  0  0  0
   14.4190   17.6250    1.3390 C   0  0  0  0  0  0  0  0  0  0  0  0
   14.3720   19.0690    0.8840 C   0  0  0  0  0  0  0  0  0  0  0  0
   15.2760   18.4120   -1.3710 C   0  0  0  0  0  0  0  0  0  0  0  0
   17.2740   20.9100   -2.0310 C   0  0  0  0  0  0  0  0  0  0  0  0
   17.4330   22.1450    2.5800 C   0  0  0  0  0  0  0  0  0  0  0  0
   18.7580   21.9070    2.8600 C   0  0  0  0  0  0  0  0  0  0  0  0
   21.0100   25.1940   -2.6260 C   0  0  0  0  0  0  0  0  0  0  0  0
   22.1900   25.0260   -3.5480 C   0  0  0  0  0  0  0  0  0  0  0  0
   19.2720   24.1220   -1.2910 C   0  0  0  0  0  0  0  0  0  0  0  0
   18.2040   23.2380   -1.9020 C   0  0  0  0  0  0  0  0  0  0  0  0
   16.8470   23.7130   -1.3990 C   0  0  0  0  0  0  0  0  0  0  0  0
   15.7490   22.8140   -1.8980 C   0  0  0  0  0  0  0  0  0  0  0  0
   15.1840   20.7830   -0.6580 C   0  0  0  0  0  0  0  0  0  0  0  0
   15.4580   19.3590   -0.1700 C   0  0  0  0  0  0  0  0  0  0  0  0
   17.4070   20.0950    1.3030 C   0  0  0  0  0  0  0  0  0  0  0  0
   16.7580   21.2440    1.7770 C   0  0  0  0  0  0  0  0  0  0  0  0
   18.7510   19.8840    1.6320 C   0  0  0  0  0  0  0  0  0  0  0  0
   20.5200   26.3100   -2.4320 O   0  0  0  0  0  0  0  0  0  0  0  0
   20.4830   24.0970   -2.0980 N   0  0  0  0  0  0  0  0  0  0  0  0
   16.0280   21.4390   -1.4660 N   0  0  0  0  0  0  0  0  0  0  0  0
   14.1600   21.3620   -0.3230 O   0  0  0  0  0  0  0  0  0  0  0  0
   16.7820   19.1790    0.4450 N   0  0  0  0  0  0  0  0  0  0  0  0
   19.6040   23.0680    3.8420 Cl  0  0  0  0  0  0  0  0  0  0  0  0
   12.9750   16.7660   -0.3270 F   0  0  0  0  0  0  0  0  0  0  0  0
   14.4320   15.4210    0.6090 F   0  0  0  0  0  0  0  0  0  0  0  0
   18.4530   21.7590   -1.6020 C   0  0  0  0  0  0  0  0  0  0  0  0
   20.4510   20.6100    2.6980 H   0  0  0  0  0  0  0  0  0  0  0  0
   15.0070   16.3180   -1.8040 H   0  0  0  0  0  0  0  0  0  0  0  0
   16.2450   16.6560   -0.6240 H   0  0  0  0  0  0  0  0  0  0  0  0
   15.3520   17.4240    1.8630 H   0  0  0  0  0  0  0  0  0  0  0  0
   13.6230   17.4330    2.0590 H   0  0  0  0  0  0  0  0  0  0  0  0
   14.4540   19.7090    1.7620 H   0  0  0  0  0  0  0  0  0  0  0  0
   13.3690   19.2210    0.4820 H   0  0  0  0  0  0  0  0  0  0  0  0
   14.3260   18.6320   -1.8630 H   0  0  0  0  0  0  0  0  0  0  0  0
   16.0270   18.5200   -2.1480 H   0  0  0  0  0  0  0  0  0  0  0  0
   17.1880   20.9320   -3.1180 H   0  0  0  0  0  0  0  0  0  0  0  0
   17.5120   19.8870   -1.7960 H   0  0  0  0  0  0  0  0  0  0  0  0
   16.9340   23.0130    2.9690 H   0  0  0  0  0  0  0  0  0  0  0  0
   22.9970   25.6620   -3.1910 H   0  0  0  0  0  0  0  0  0  0  0  0
   22.5430   24.0000   -3.5310 H   0  0  0  0  0  0  0  0  0  0  0  0
   19.5200   23.7840   -0.2840 H   0  0  0  0  0  0  0  0  0  0  0  0
   18.8820   25.1320   -1.1590 H   0  0  0  0  0  0  0  0  0  0  0  0
   18.2030   23.3740   -2.9820 H   0  0  0  0  0  0  0  0  0  0  0  0
   16.6530   24.7310   -1.7310 H   0  0  0  0  0  0  0  0  0  0  0  0
   16.8430   23.7190   -0.3080 H   0  0  0  0  0  0  0  0  0  0  0  0
   15.7160   22.8370   -2.9880 H   0  0  0  0  0  0  0  0  0  0  0  0
   14.7890   23.2230   -1.5810 H   0  0  0  0  0  0  0  0  0  0  0  0
   15.7180   21.4620    1.6450 H   0  0  0  0  0  0  0  0  0  0  0  0
   19.2700   19.0090    1.2680 H   0  0  0  0  0  0  0  0  0  0  0  0
   20.9090   23.1990   -2.2940 H   0  0  0  0  0  0  0  0  0  0  0  0
   17.3840   18.4980   -0.0000 H   0  0  0  0  0  0  0  0  0  0  0  0
   19.3450   21.4110   -2.1130 H   0  0  0  0  0  0  0  0  0  0  0  0
   18.6390   21.6270   -0.5390 H   0  0  0  0  0  0  0  0  0  0  0  0
  1  9  2  0  0  0  0
  1 20  1  0  0  0  0
  1 30  1  0  0  0  0
  2  3  1  0  0  0  0
  2  6  1  0  0  0  0
  2 31  1  0  0  0  0
  2 32  1  0  0  0  0
  3  4  1  0  0  0  0
  3 27  1  0  0  0  0
  3 28  1  0  0  0  0
  4  5  1  0  0  0  0
  4 33  1  0  0  0  0
  4 34  1  0  0  0  0
  5 17  1  0  0  0  0
  5 35  1  0  0  0  0
  5 36  1  0  0  0  0
  6 17  1  0  0  0  0
  6 37  1  0  0  0  0
  6 38  1  0  0  0  0
  7 23  1  0  0  0  0
  7 29  1  0  0  0  0
  7 39  1  0  0  0  0
  7 40  1  0  0  0  0
  8  9  1  0  0  0  0
  8 19  2  0  0  0  0
  8 41  1  0  0  0  0
  9 26  1  0  0  0  0
 10 11  1  0  0  0  0
 10 21  2  0  0  0  0
 10 22  1  0  0  0  0
 11 42  1  0  0  0  0
 11 43  1  0  0  0  0
 12 13  1  0  0  0  0
 12 22  1  0  0  0  0
 12 44  1  0  0  0  0
 12 45  1  0  0  0  0
 13 14  1  0  0  0  0
 13 29  1  0  0  0  0
 13 46  1  0  0  0  0
 14 15  1  0  0  0  0
 14 47  1  0  0  0  0
 14 48  1  0  0  0  0
 15 23  1  0  0  0  0
 15 49  1  0  0  0  0
 15 50  1  0  0  0  0
 16 17  1  0  0  0  0
 16 23  1  0  0  0  0
 16 24  2  0  0  0  0
 17 25  1  0  0  0  0
 18 19  1  0  0  0  0
 18 20  2  0  0  0  0
 18 25  1  0  0  0  0
 19 51  1  0  0  0  0
 20 52  1  0  0  0  0
 22 53  1  0  0  0  0
 25 54  1  0  0  0  0
 29 55  1  0  0  0  0
 29 56  1  0  0  0  0
M  END
>  <COMPND>
    title: molecule 1

$$$$
8ALV_ligand0.pdb
 OpenBabel06042612053D

 56 58  0  0  0  0  0  0  0  0999 V2000
  -17.4060  -20.1800    1.3820 C   0  0  0  0  0  0  0  0  0  0  0  0
  -18.7350  -19.9720    1.7020 C   0  0  0  0  0  0  0  0  0  0  0  0
  -19.4350  -20.8820    2.4540 C   0  0  0  0  0  0  0  0  0  0  0  0
  -18.7830  -22.0210    2.9110 C   0  0  0  0  0  0  0  0  0  0  0  0
  -14.3430  -19.1060    1.1000 C   0  0  0  0  0  0  0  0  0  0  0  0
  -15.2360  -18.4490   -1.1980 C   0  0  0  0  0  0  0  0  0  0  0  0
  -15.7410  -22.8640   -1.8680 C   0  0  0  0  0  0  0  0  0  0  0  0
  -17.4600  -22.2420    2.6030 C   0  0  0  0  0  0  0  0  0  0  0  0
  -16.7600  -21.3310    1.8440 C   0  0  0  0  0  0  0  0  0  0  0  0
  -14.2650  -17.6350    1.4830 C   0  0  0  0  0  0  0  0  0  0  0  0
  -22.2790  -25.1340   -3.5720 C   0  0  0  0  0  0  0  0  0  0  0  0
  -21.1000  -25.2530   -2.6020 C   0  0  0  0  0  0  0  0  0  0  0  0
  -19.3080  -24.1130   -1.1740 C   0  0  0  0  0  0  0  0  0  0  0  0
  -18.1640  -23.3400   -1.8330 C   0  0  0  0  0  0  0  0  0  0  0  0
  -18.4380  -21.8880   -1.6180 C   0  0  0  0  0  0  0  0  0  0  0  0
  -17.2870  -20.9460   -1.9200 C   0  0  0  0  0  0  0  0  0  0  0  0
  -15.0870  -20.7940   -0.5180 C   0  0  0  0  0  0  0  0  0  0  0  0
  -15.3670  -19.3850    0.0000 C   0  0  0  0  0  0  0  0  0  0  0  0
  -14.0620  -16.7610    0.2470 C   0  0  0  0  0  0  0  0  0  0  0  0
  -15.1930  -17.0000   -0.7510 C   0  0  0  0  0  0  0  0  0  0  0  0
  -16.8370  -23.7570   -1.3220 C   0  0  0  0  0  0  0  0  0  0  0  0
  -20.4570  -24.0570   -2.0850 N   0  0  0  0  0  0  0  0  0  0  0  0
  -15.9880  -21.4750   -1.3990 N   0  0  0  0  0  0  0  0  0  0  0  0
  -16.7140  -19.1910    0.5650 N   0  0  0  0  0  0  0  0  0  0  0  0
  -14.1110  -21.3740   -0.1930 O   0  0  0  0  0  0  0  0  0  0  0  0
  -20.7120  -26.3320   -2.3040 O   0  0  0  0  0  0  0  0  0  0  0  0
  -19.6730  -23.1870    3.8830 Cl  0  0  0  0  0  0  0  0  0  0  0  0
  -19.2380  -19.0830    1.3520 H   0  0  0  0  0  0  0  0  0  0  0  0
  -20.4730  -20.7090    2.6890 H   0  0  0  0  0  0  0  0  0  0  0  0
  -14.5280  -19.6980    1.9960 H   0  0  0  0  0  0  0  0  0  0  0  0
  -13.3310  -19.3530    0.7780 H   0  0  0  0  0  0  0  0  0  0  0  0
  -16.0320  -18.5570   -1.9310 H   0  0  0  0  0  0  0  0  0  0  0  0
  -14.3110  -18.6600   -1.7400 H   0  0  0  0  0  0  0  0  0  0  0  0
  -15.7380  -22.8820   -2.9590 H   0  0  0  0  0  0  0  0  0  0  0  0
  -14.7690  -23.2530   -1.5620 H   0  0  0  0  0  0  0  0  0  0  0  0
  -16.9600  -23.1160    2.9810 H   0  0  0  0  0  0  0  0  0  0  0  0
  -15.7160  -21.5390    1.7300 H   0  0  0  0  0  0  0  0  0  0  0  0
  -13.4470  -17.4790    2.1870 H   0  0  0  0  0  0  0  0  0  0  0  0
  -15.1740  -17.3380    2.0040 H   0  0  0  0  0  0  0  0  0  0  0  0
  -23.0440  -25.8380   -3.2510 H   0  0  0  0  0  0  0  0  0  0  0  0
  -22.6840  -24.1300   -3.5030 H   0  0  0  0  0  0  0  0  0  0  0  0
  -19.5810  -23.7210   -0.1930 H   0  0  0  0  0  0  0  0  0  0  0  0
  -18.9950  -25.1440   -1.0090 H   0  0  0  0  0  0  0  0  0  0  0  0
  -18.1600  -23.5370   -2.9050 H   0  0  0  0  0  0  0  0  0  0  0  0
  -18.7190  -21.7200   -0.5790 H   0  0  0  0  0  0  0  0  0  0  0  0
  -19.2900  -21.5700   -2.2090 H   0  0  0  0  0  0  0  0  0  0  0  0
  -17.5580  -19.9600   -1.5860 H   0  0  0  0  0  0  0  0  0  0  0  0
  -17.1810  -20.8560   -3.0010 H   0  0  0  0  0  0  0  0  0  0  0  0
  -13.1000  -16.9880   -0.2130 H   0  0  0  0  0  0  0  0  0  0  0  0
  -14.0310  -15.7100    0.5350 H   0  0  0  0  0  0  0  0  0  0  0  0
  -16.1470  -16.6980   -0.3170 H   0  0  0  0  0  0  0  0  0  0  0  0
  -15.0460  -16.3590   -1.6210 H   0  0  0  0  0  0  0  0  0  0  0  0
  -16.8300  -23.7210   -0.2310 H   0  0  0  0  0  0  0  0  0  0  0  0
  -16.6400  -24.7880   -1.6130 H   0  0  0  0  0  0  0  0  0  0  0  0
  -20.8140  -23.1470   -2.3530 H   0  0  0  0  0  0  0  0  0  0  0  0
  -17.2760  -18.4600    0.1490 H   0  0  0  0  0  0  0  0  0  0  0  0
  1  2  2  0  0  0  0
  1  9  1  0  0  0  0
  1 24  1  0  0  0  0
  2  3  1  0  0  0  0
  2 28  1  0  0  0  0
  3  4  2  0  0  0  0
  3 29  1  0  0  0  0
  4  8  1  0  0  0  0
  4 27  1  0  0  0  0
  5 10  1  0  0  0  0
  5 18  1  0  0  0  0
  5 30  1  0  0  0  0
  5 31  1  0  0  0  0
  6 18  1  0  0  0  0
  6 20  1  0  0  0  0
  6 32  1  0  0  0  0
  6 33  1  0  0  0  0
  7 21  1  0  0  0  0
  7 23  1  0  0  0  0
  7 34  1  0  0  0  0
  7 35  1  0  0  0  0
  8  9  2  0  0  0  0
  8 36  1  0  0  0  0
  9 37  1  0  0  0  0
 10 19  1  0  0  0  0
 10 38  1  0  0  0  0
 10 39  1  0  0  0  0
 11 12  1  0  0  0  0
 11 40  1  0  0  0  0
 11 41  1  0  0  0  0
 12 22  1  0  0  0  0
 12 26  2  0  0  0  0
 13 14  1  0  0  0  0
 13 22  1  0  0  0  0
 13 42  1  0  0  0  0
 13 43  1  0  0  0  0
 14 15  1  0  0  0  0
 14 21  1  0  0  0  0
 14 44  1  0  0  0  0
 15 16  1  0  0  0  0
 15 45  1  0  0  0  0
 15 46  1  0  0  0  0
 16 23  1  0  0  0  0
 16 47  1  0  0  0  0
 16 48  1  0  0  0  0
 17 18  1  0  0  0  0
 17 23  1  0  0  0  0
 17 25  2  0  0  0  0
 18 24  1  0  0  0  0
 19 20  1  0  0  0  0
 19 49  1  0  0  0  0
 19 50  1  0  0  0  0
 20 51  1  0  0  0  0
 20 52  1  0  0  0  0
 21 53  1  0  0  0  0
 21 54  1  0  0  0  0
 22 55  1  0  0  0  0
 24 56  1  0  0  0  0
M  END
>  <COMPND>
    title: molecule 1

$$$$
8ALW_ligand0.pdb
 OpenBabel06042612053D

 54 56  0  0  0  0  0  0  0  0999 V2000
  -14.4680   19.0580   -1.0450 C   0  0  0  0  0  0  0  0  0  0  0  0
  -14.4210   17.6110   -1.4240 C   0  0  0  0  0  0  0  0  0  0  0  0
  -15.2760   16.8920    0.6430 C   0  0  0  0  0  0  0  0  0  0  0  0
  -16.7740   23.6700    1.4430 C   0  0  0  0  0  0  0  0  0  0  0  0
  -15.5480   19.3200    0.0300 C   0  0  0  0  0  0  0  0  0  0  0  0
  -17.4990   20.1810   -1.3850 C   0  0  0  0  0  0  0  0  0  0  0  0
  -18.8510   20.0050   -1.7180 C   0  0  0  0  0  0  0  0  0  0  0  0
  -19.5030   20.9300   -2.5110 C   0  0  0  0  0  0  0  0  0  0  0  0
  -18.8270   22.0480   -2.9400 C   0  0  0  0  0  0  0  0  0  0  0  0
  -17.5010   22.2590   -2.6340 C   0  0  0  0  0  0  0  0  0  0  0  0
  -16.8410   21.3340   -1.8450 C   0  0  0  0  0  0  0  0  0  0  0  0
  -15.4320   18.2880    1.1760 C   0  0  0  0  0  0  0  0  0  0  0  0
  -15.6960   22.7230    1.9170 C   0  0  0  0  0  0  0  0  0  0  0  0
  -22.1350   25.2040    3.5140 C   0  0  0  0  0  0  0  0  0  0  0  0
  -20.8740   25.2690    2.6890 C   0  0  0  0  0  0  0  0  0  0  0  0
  -19.2200   24.1140    1.3040 C   0  0  0  0  0  0  0  0  0  0  0  0
  -18.1500   23.2380    1.9400 C   0  0  0  0  0  0  0  0  0  0  0  0
  -18.4200   21.7620    1.6390 C   0  0  0  0  0  0  0  0  0  0  0  0
  -17.2610   20.8750    2.0500 C   0  0  0  0  0  0  0  0  0  0  0  0
  -15.2180   20.7130    0.5860 C   0  0  0  0  0  0  0  0  0  0  0  0
  -20.4720   24.1730    2.0550 N   0  0  0  0  0  0  0  0  0  0  0  0
  -16.0090   21.3650    1.4550 N   0  0  0  0  0  0  0  0  0  0  0  0
  -16.8880   19.2230   -0.5580 N   0  0  0  0  0  0  0  0  0  0  0  0
  -14.1920   16.8140   -0.2780 O   0  0  0  0  0  0  0  0  0  0  0  0
  -14.1990   21.2880    0.2280 O   0  0  0  0  0  0  0  0  0  0  0  0
  -20.2080   26.3180    2.6680 O   0  0  0  0  0  0  0  0  0  0  0  0
  -19.6630   23.2250   -3.9050 Cl  0  0  0  0  0  0  0  0  0  0  0  0
  -14.6110   19.6610   -1.9420 H   0  0  0  0  0  0  0  0  0  0  0  0
  -13.4580   19.2650   -0.6860 H   0  0  0  0  0  0  0  0  0  0  0  0
  -13.6070   17.4420   -2.1300 H   0  0  0  0  0  0  0  0  0  0  0  0
  -15.3360   17.3050   -1.9300 H   0  0  0  0  0  0  0  0  0  0  0  0
  -16.1960   16.5490    0.1680 H   0  0  0  0  0  0  0  0  0  0  0  0
  -15.0800   16.2040    1.4650 H   0  0  0  0  0  0  0  0  0  0  0  0
  -16.7720   23.6940    0.3520 H   0  0  0  0  0  0  0  0  0  0  0  0
  -16.5500   24.6800    1.7870 H   0  0  0  0  0  0  0  0  0  0  0  0
  -19.3880   19.1340   -1.3700 H   0  0  0  0  0  0  0  0  0  0  0  0
  -20.5410   20.7830   -2.7700 H   0  0  0  0  0  0  0  0  0  0  0  0
  -16.9850   23.1230   -3.0050 H   0  0  0  0  0  0  0  0  0  0  0  0
  -15.7980   21.5330   -1.6910 H   0  0  0  0  0  0  0  0  0  0  0  0
  -14.5520   18.5100    1.7820 H   0  0  0  0  0  0  0  0  0  0  0  0
  -16.2700   18.2830    1.8670 H   0  0  0  0  0  0  0  0  0  0  0  0
  -15.6570   22.7230    3.0070 H   0  0  0  0  0  0  0  0  0  0  0  0
  -14.7250   23.1080    1.6040 H   0  0  0  0  0  0  0  0  0  0  0  0
  -22.8450   25.9490    3.1740 H   0  0  0  0  0  0  0  0  0  0  0  0
  -22.6040   24.2250    3.4450 H   0  0  0  0  0  0  0  0  0  0  0  0
  -19.4540   23.7510    0.3020 H   0  0  0  0  0  0  0  0  0  0  0  0
  -18.8150   25.1120    1.1320 H   0  0  0  0  0  0  0  0  0  0  0  0
  -18.1620   23.3830    3.0180 H   0  0  0  0  0  0  0  0  0  0  0  0
  -18.6160   21.6340    0.5770 H   0  0  0  0  0  0  0  0  0  0  0  0
  -19.3170   21.4320    2.1530 H   0  0  0  0  0  0  0  0  0  0  0  0
  -17.5450   19.8640    1.7920 H   0  0  0  0  0  0  0  0  0  0  0  0
  -17.1580   20.8800    3.1360 H   0  0  0  0  0  0  0  0  0  0  0  0
  -21.0160   23.3230    2.1420 H   0  0  0  0  0  0  0  0  0  0  0  0
  -17.4350   18.4120   -0.3060 H   0  0  0  0  0  0  0  0  0  0  0  0
  1  2  1  0  0  0  0
  1  5  1  0  0  0  0
  1 28  1  0  0  0  0
  1 29  1  0  0  0  0
  2 24  1  0  0  0  0
  2 30  1  0  0  0  0
  2 31  1  0  0  0  0
  3 12  1  0  0  0  0
  3 24  1  0  0  0  0
  3 32  1  0  0  0  0
  3 33  1  0  0  0  0
  4 13  1  0  0  0  0
  4 17  1  0  0  0  0
  4 34  1  0  0  0  0
  4 35  1  0  0  0  0
  5 12  1  0  0  0  0
  5 20  1  0  0  0  0
  5 23  1  0  0  0  0
  6  7  2  0  0  0  0
  6 11  1  0  0  0  0
  6 23  1  0  0  0  0
  7  8  1  0  0  0  0
  7 36  1  0  0  0  0
  8  9  2  0  0  0  0
  8 37  1  0  0  0  0
  9 10  1  0  0  0  0
  9 27  1  0  0  0  0
 10 11  2  0  0  0  0
 10 38  1  0  0  0  0
 11 39  1  0  0  0  0
 12 40  1  0  0  0  0
 12 41  1  0  0  0  0
 13 22  1  0  0  0  0
 13 42  1  0  0  0  0
 13 43  1  0  0  0  0
 14 15  1  0  0  0  0
 14 44  1  0  0  0  0
 14 45  1  0  0  0  0
 15 21  1  0  0  0  0
 15 26  2  0  0  0  0
 16 17  1  0  0  0  0
 16 21  1  0  0  0  0
 16 46  1  0  0  0  0
 16 47  1  0  0  0  0
 17 18  1  0  0  0  0
 17 48  1  0  0  0  0
 18 19  1  0  0  0  0
 18 49  1  0  0  0  0
 18 50  1  0  0  0  0
 19 22  1  0  0  0  0
 19 51  1  0  0  0  0
 19 52  1  0  0  0  0
 20 22  1  0  0  0  0
 20 25  2  0  0  0  0
 21 53  1  0  0  0  0
 23 54  1  0  0  0  0
M  END
>  <COMPND>
    title: molecule 1

$$$$
8AM7_ligand0.pdb
 OpenBabel06042612053D

 55 57  0  0  0  0  0  0  0  0999 V2000
   20.9580   25.2660   -2.7580 C   0  0  0  0  0  0  0  0  0  0  0  0
   22.2150   25.1280   -3.5910 C   0  0  0  0  0  0  0  0  0  0  0  0
   19.2130   24.1870   -1.4320 C   0  0  0  0  0  0  0  0  0  0  0  0
   18.1750   23.2410   -2.0150 C   0  0  0  0  0  0  0  0  0  0  0  0
   18.4800   21.7990   -1.6110 C   0  0  0  0  0  0  0  0  0  0  0  0
   17.3810   20.8510   -2.0490 C   0  0  0  0  0  0  0  0  0  0  0  0
   19.4150   20.8210    2.3650 C   0  0  0  0  0  0  0  0  0  0  0  0
   18.7290   21.9180    2.8350 C   0  0  0  0  0  0  0  0  0  0  0  0
   17.4050   22.1080    2.5570 C   0  0  0  0  0  0  0  0  0  0  0  0
   16.7430   21.1890    1.7550 C   0  0  0  0  0  0  0  0  0  0  0  0
   14.4860   18.8410    0.8300 C   0  0  0  0  0  0  0  0  0  0  0  0
   14.6840   17.4230    1.3000 C   0  0  0  0  0  0  0  0  0  0  0  0
   15.7200   16.8010   -0.8070 C   0  0  0  0  0  0  0  0  0  0  0  0
   15.5510   18.1990   -1.3530 C   0  0  0  0  0  0  0  0  0  0  0  0
   20.4100   26.3830   -2.6580 O   0  0  0  0  0  0  0  0  0  0  0  0
   20.4500   24.1710   -2.1980 N   0  0  0  0  0  0  0  0  0  0  0  0
   16.0770   21.3000   -1.5360 N   0  0  0  0  0  0  0  0  0  0  0  0
   15.2350   20.6200   -0.7320 C   0  0  0  0  0  0  0  0  0  0  0  0
   14.1800   21.1630   -0.4060 O   0  0  0  0  0  0  0  0  0  0  0  0
   15.5520   19.2210   -0.2060 C   0  0  0  0  0  0  0  0  0  0  0  0
   16.8430   19.1090    0.4660 O   0  0  0  0  0  0  0  0  0  0  0  0
   17.4120   20.0680    1.2840 C   0  0  0  0  0  0  0  0  0  0  0  0
   18.7510   19.8890    1.5820 C   0  0  0  0  0  0  0  0  0  0  0  0
   19.5590   23.0810    3.8180 Cl  0  0  0  0  0  0  0  0  0  0  0  0
   14.6680   16.4900    0.1670 N   0  3  0  0  0  0  0  0  0  0  0  0
   15.7420   22.6430   -2.0330 C   0  0  0  0  0  0  0  0  0  0  0  0
   16.7770   23.6340   -1.5460 C   0  0  0  0  0  0  0  0  0  0  0  0
   22.9820   25.7940   -3.2040 H   0  0  0  0  0  0  0  0  0  0  0  0
   22.5930   24.1110   -3.5570 H   0  0  0  0  0  0  0  0  0  0  0  0
   19.4440   23.9130   -0.4020 H   0  0  0  0  0  0  0  0  0  0  0  0
   18.7860   25.1880   -1.3650 H   0  0  0  0  0  0  0  0  0  0  0  0
   18.1880   23.3150   -3.1000 H   0  0  0  0  0  0  0  0  0  0  0  0
   18.6070   21.7410   -0.5320 H   0  0  0  0  0  0  0  0  0  0  0  0
   19.4180   21.4710   -2.0450 H   0  0  0  0  0  0  0  0  0  0  0  0
   17.6660   19.8770   -1.6850 H   0  0  0  0  0  0  0  0  0  0  0  0
   17.3430   20.7810   -3.1370 H   0  0  0  0  0  0  0  0  0  0  0  0
   20.4610   20.6860    2.5990 H   0  0  0  0  0  0  0  0  0  0  0  0
   16.8800   22.9630    2.9470 H   0  0  0  0  0  0  0  0  0  0  0  0
   15.6940   21.3670    1.6070 H   0  0  0  0  0  0  0  0  0  0  0  0
   14.4970   19.5040    1.6950 H   0  0  0  0  0  0  0  0  0  0  0  0
   13.4840   18.9100    0.4020 H   0  0  0  0  0  0  0  0  0  0  0  0
   13.8830   17.1510    1.9870 H   0  0  0  0  0  0  0  0  0  0  0  0
   15.6110   17.3290    1.8600 H   0  0  0  0  0  0  0  0  0  0  0  0
   16.7000   16.6770   -0.3450 H   0  0  0  0  0  0  0  0  0  0  0  0
   15.6680   16.0760   -1.6200 H   0  0  0  0  0  0  0  0  0  0  0  0
   14.6050   18.2570   -1.8950 H   0  0  0  0  0  0  0  0  0  0  0  0
   16.3200   18.3680   -2.1010 H   0  0  0  0  0  0  0  0  0  0  0  0
   20.9220   23.2840   -2.3280 H   0  0  0  0  0  0  0  0  0  0  0  0
   19.2790   19.0240    1.2080 H   0  0  0  0  0  0  0  0  0  0  0  0
   13.7680   16.5400   -0.2890 H   0  0  0  0  0  0  0  0  0  0  0  0
   14.8070   15.5520    0.5170 H   0  0  0  0  0  0  0  0  0  0  0  0
   14.7520   23.0040   -1.7510 H   0  0  0  0  0  0  0  0  0  0  0  0
   15.7330   22.6200   -3.1240 H   0  0  0  0  0  0  0  0  0  0  0  0
   16.5230   24.6310   -1.9080 H   0  0  0  0  0  0  0  0  0  0  0  0
   16.7530   23.6740   -0.4560 H   0  0  0  0  0  0  0  0  0  0  0  0
  1  2  1  0  0  0  0
  1 15  2  0  0  0  0
  1 16  1  0  0  0  0
  2 28  1  0  0  0  0
  2 29  1  0  0  0  0
  3  4  1  0  0  0  0
  3 16  1  0  0  0  0
  3 30  1  0  0  0  0
  3 31  1  0  0  0  0
  4  5  1  0  0  0  0
  4 27  1  0  0  0  0
  4 32  1  0  0  0  0
  5  6  1  0  0  0  0
  5 33  1  0  0  0  0
  5 34  1  0  0  0  0
  6 17  1  0  0  0  0
  6 35  1  0  0  0  0
  6 36  1  0  0  0  0
  7  8  2  0  0  0  0
  7 23  1  0  0  0  0
  7 37  1  0  0  0  0
  8  9  1  0  0  0  0
  8 24  1  0  0  0  0
  9 10  2  0  0  0  0
  9 38  1  0  0  0  0
 10 22  1  0  0  0  0
 10 39  1  0  0  0  0
 11 12  1  0  0  0  0
 11 20  1  0  0  0  0
 11 40  1  0  0  0  0
 11 41  1  0  0  0  0
 12 25  1  0  0  0  0
 12 42  1  0  0  0  0
 12 43  1  0  0  0  0
 13 14  1  0  0  0  0
 13 25  1  0  0  0  0
 13 44  1  0  0  0  0
 13 45  1  0  0  0  0
 14 20  1  0  0  0  0
 14 46  1  0  0  0  0
 14 47  1  0  0  0  0
 16 48  1  0  0  0  0
 17 18  1  0  0  0  0
 17 26  1  0  0  0  0
 18 19  2  0  0  0  0
 18 20  1  0  0  0  0
 20 21  1  0  0  0  0
 21 22  1  0  0  0  0
 22 23  2  0  0  0  0
 23 49  1  0  0  0  0
 25 50  1  0  0  0  0
 25 51  1  0  0  0  0
 26 27  1  0  0  0  0
 26 52  1  0  0  0  0
 26 53  1  0  0  0  0
 27 54  1  0  0  0  0
 27 55  1  0  0  0  0
M  CHG  1  25   1
M  END
>  <COMPND>
    title: molecule 1

$$$$
8ANF_ligand0.pdb
 OpenBabel06042612053D

 54 55  0  0  0  0  0  0  0  0999 V2000
   24.7770  -22.5930   -1.7850 C   0  0  0  0  0  0  0  0  0  0  0  0
   26.4020  -19.0460    1.3220 C   0  0  0  0  0  0  0  0  0  0  0  0
   23.3630  -22.2400    2.7890 C   0  0  0  0  0  0  0  0  0  0  0  0
   22.0370  -22.0340    3.0750 C   0  0  0  0  0  0  0  0  0  0  0  0
   22.0750  -19.9230    1.9850 C   0  0  0  0  0  0  0  0  0  0  0  0
   22.1380  -21.5000   -1.3040 C   0  0  0  0  0  0  0  0  0  0  0  0
   19.1400  -27.8060   -3.8510 C   0  0  0  0  0  0  0  0  0  0  0  0
   18.5410  -26.7630   -2.9380 C   0  0  0  0  0  0  0  0  0  0  0  0
   18.7410  -24.4380   -2.1720 C   0  0  0  0  0  0  0  0  0  0  0  0
   19.7620  -23.3390   -2.2670 C   0  0  0  0  0  0  0  0  0  0  0  0
   21.0870  -23.7800   -1.6280 C   0  0  0  0  0  0  0  0  0  0  0  0
   22.2780  -22.8850   -1.9240 C   0  0  0  0  0  0  0  0  0  0  0  0
   23.6000  -23.4940   -1.4640 C   0  0  0  0  0  0  0  0  0  0  0  0
   25.5110  -20.7160   -0.3810 C   0  0  0  0  0  0  0  0  0  0  0  0
   25.3340  -19.3160    0.2600 C   0  0  0  0  0  0  0  0  0  0  0  0
   25.4170  -18.2610   -0.8410 C   0  0  0  0  0  0  0  0  0  0  0  0
   23.4180  -20.1080    1.6910 C   0  0  0  0  0  0  0  0  0  0  0  0
   24.0540  -21.2800    2.0740 C   0  0  0  0  0  0  0  0  0  0  0  0
   21.3780  -20.8870    2.6980 C   0  0  0  0  0  0  0  0  0  0  0  0
   23.3290  -20.6220   -1.6330 C   0  0  0  0  0  0  0  0  0  0  0  0
   19.1830  -25.5940   -2.9430 N   0  0  0  0  0  0  0  0  0  0  0  0
   24.5800  -21.2570   -1.2010 N   0  0  0  0  0  0  0  0  0  0  0  0
   17.5160  -26.9980   -2.2570 O   0  0  0  0  0  0  0  0  0  0  0  0
   26.5290  -21.3520   -0.1210 O   0  0  0  0  0  0  0  0  0  0  0  0
   24.0620  -19.1260    0.9600 O   0  0  0  0  0  0  0  0  0  0  0  0
   21.1720  -23.2550    3.9470 Cl  0  0  0  0  0  0  0  0  0  0  0  0
   24.8690  -22.4810   -2.8660 H   0  0  0  0  0  0  0  0  0  0  0  0
   25.6900  -23.0980   -1.4690 H   0  0  0  0  0  0  0  0  0  0  0  0
   26.2610  -18.0590    1.7650 H   0  0  0  0  0  0  0  0  0  0  0  0
   26.3910  -19.7530    2.1490 H   0  0  0  0  0  0  0  0  0  0  0  0
   27.4070  -19.0730    0.8990 H   0  0  0  0  0  0  0  0  0  0  0  0
   23.8560  -23.1340    3.1170 H   0  0  0  0  0  0  0  0  0  0  0  0
   21.5730  -19.0190    1.6740 H   0  0  0  0  0  0  0  0  0  0  0  0
   22.0250  -21.5980   -0.2260 H   0  0  0  0  0  0  0  0  0  0  0  0
   21.2310  -21.0150   -1.6630 H   0  0  0  0  0  0  0  0  0  0  0  0
   20.1240  -27.5320   -4.2300 H   0  0  0  0  0  0  0  0  0  0  0  0
   19.2350  -28.7220   -3.2850 H   0  0  0  0  0  0  0  0  0  0  0  0
   17.7840  -24.0900   -2.5620 H   0  0  0  0  0  0  0  0  0  0  0  0
   18.5800  -24.7200   -1.1310 H   0  0  0  0  0  0  0  0  0  0  0  0
   19.3830  -22.4410   -1.7800 H   0  0  0  0  0  0  0  0  0  0  0  0
   19.9190  -23.0860   -3.3160 H   0  0  0  0  0  0  0  0  0  0  0  0
   21.3550  -24.7790   -1.9700 H   0  0  0  0  0  0  0  0  0  0  0  0
   20.9540  -23.8710   -0.5490 H   0  0  0  0  0  0  0  0  0  0  0  0
   22.3340  -22.7670   -3.0070 H   0  0  0  0  0  0  0  0  0  0  0  0
   23.5680  -23.6820   -0.3890 H   0  0  0  0  0  0  0  0  0  0  0  0
   23.7500  -24.4640   -1.9400 H   0  0  0  0  0  0  0  0  0  0  0  0
   24.7350  -18.3990   -1.6750 H   0  0  0  0  0  0  0  0  0  0  0  0
   25.2190  -17.2690   -0.4340 H   0  0  0  0  0  0  0  0  0  0  0  0
   26.4200  -18.2310   -1.2690 H   0  0  0  0  0  0  0  0  0  0  0  0
   25.1010  -21.4760    1.9430 H   0  0  0  0  0  0  0  0  0  0  0  0
   20.3350  -20.7460    2.9340 H   0  0  0  0  0  0  0  0  0  0  0  0
   23.1280  -19.6560   -1.1820 H   0  0  0  0  0  0  0  0  0  0  0  0
   23.3790  -20.4450   -2.7080 H   0  0  0  0  0  0  0  0  0  0  0  0
   19.9990  -25.4840   -3.5340 H   0  0  0  0  0  0  0  0  0  0  0  0
  1 13  1  0  0  0  0
  1 22  1  0  0  0  0
  1 27  1  0  0  0  0
  1 28  1  0  0  0  0
  2 15  1  0  0  0  0
  2 29  1  0  0  0  0
  2 30  1  0  0  0  0
  2 31  1  0  0  0  0
  3  4  2  0  0  0  0
  3 18  1  0  0  0  0
  3 32  1  0  0  0  0
  4 19  1  0  0  0  0
  4 26  1  0  0  0  0
  5 17  1  0  0  0  0
  5 19  2  0  0  0  0
  5 33  1  0  0  0  0
  6 12  1  0  0  0  0
  6 20  1  0  0  0  0
  6 34  1  0  0  0  0
  6 35  1  0  0  0  0
  7  8  1  0  0  0  0
  7 36  1  0  0  0  0
  7 37  1  0  0  0  0
  8 21  1  0  0  0  0
  8 23  2  0  0  0  0
  9 10  1  0  0  0  0
  9 21  1  0  0  0  0
  9 38  1  0  0  0  0
  9 39  1  0  0  0  0
 10 11  1  0  0  0  0
 10 40  1  0  0  0  0
 10 41  1  0  0  0  0
 11 12  1  0  0  0  0
 11 42  1  0  0  0  0
 11 43  1  0  0  0  0
 12 13  1  0  0  0  0
 12 44  1  0  0  0  0
 13 45  1  0  0  0  0
 13 46  1  0  0  0  0
 14 15  1  0  0  0  0
 14 22  1  0  0  0  0
 14 24  2  0  0  0  0
 15 16  1  0  0  0  0
 15 25  1  0  0  0  0
 16 47  1  0  0  0  0
 16 48  1  0  0  0  0
 16 49  1  0  0  0  0
 17 18  2  0  0  0  0
 17 25  1  0  0  0  0
 18 50  1  0  0  0  0
 19 51  1  0  0  0  0
 20 22  1  0  0  0  0
 20 52  1  0  0  0  0
 20 53  1  0  0  0  0
 21 54  1  0  0  0  0
M  END
>  <COMPND>
    title: molecule 1

$$$$
8AOY_ligand0.pdb
 OpenBabel06042612053D

 60 62  0  0  0  0  0  0  0  0999 V2000
   15.5790   20.8730   -0.5640 C   0  0  0  0  0  0  0  0  0  0  0  0
   15.6890   19.4490    0.0200 C   0  0  0  0  0  0  0  0  0  0  0  0
   17.6030   20.1870    1.5420 C   0  0  0  0  0  0  0  0  0  0  0  0
   18.9220   19.9530    1.9030 C   0  0  0  0  0  0  0  0  0  0  0  0
   19.6430   20.8650    2.6550 C   0  0  0  0  0  0  0  0  0  0  0  0
   19.0200   22.0360    3.0330 C   0  0  0  0  0  0  0  0  0  0  0  0
   17.7110   22.2920    2.7070 C   0  0  0  0  0  0  0  0  0  0  0  0
   17.0010   21.3650    1.9520 C   0  0  0  0  0  0  0  0  0  0  0  0
   14.5220   19.2400    1.0020 C   0  0  0  0  0  0  0  0  0  0  0  0
   14.4770   17.8060    1.4480 C   0  0  0  0  0  0  0  0  0  0  0  0
   15.3780   17.0490   -0.5700 C   0  0  0  0  0  0  0  0  0  0  0  0
   15.5170   18.4390   -1.1270 C   0  0  0  0  0  0  0  0  0  0  0  0
   22.1490   27.8920   -3.9370 C   0  0  0  0  0  0  0  0  0  0  0  0
   22.7070   26.8710   -2.9640 C   0  0  0  0  0  0  0  0  0  0  0  0
   22.4970   24.5540   -2.1580 C   0  0  0  0  0  0  0  0  0  0  0  0
   21.4260   23.4820   -2.2410 C   0  0  0  0  0  0  0  0  0  0  0  0
   20.1080   23.8960   -1.5680 C   0  0  0  0  0  0  0  0  0  0  0  0
   18.9050   23.0480   -1.9360 C   0  0  0  0  0  0  0  0  0  0  0  0
   17.5890   23.6620   -1.4650 C   0  0  0  0  0  0  0  0  0  0  0  0
   16.4060   22.7910   -1.8570 C   0  0  0  0  0  0  0  0  0  0  0  0
   17.7900   20.7970   -1.8130 C   0  0  0  0  0  0  0  0  0  0  0  0
   18.9920   21.6200   -1.4040 C   0  0  0  0  0  0  0  0  0  0  0  0
   22.0610   25.7050   -2.9420 N   0  0  0  0  0  0  0  0  0  0  0  0
   16.5480   21.4210   -1.3250 N   0  0  0  0  0  0  0  0  0  0  0  0
   16.9480   19.2240    0.7520 N   0  0  0  0  0  0  0  0  0  0  0  0
   14.2690   16.9570    0.3190 O   0  0  0  0  0  0  0  0  0  0  0  0
   14.5560   21.5650   -0.3640 O   0  0  0  0  0  0  0  0  0  0  0  0
   23.6990   27.1040   -2.2590 O   0  0  0  0  0  0  0  0  0  0  0  0
   19.8980   23.2310    3.9420 Cl  0  0  0  0  0  0  0  0  0  0  0  0
   19.4060   19.0350    1.6000 H   0  0  0  0  0  0  0  0  0  0  0  0
   20.6710   20.6710    2.9180 H   0  0  0  0  0  0  0  0  0  0  0  0
   17.2410   23.2000    3.0330 H   0  0  0  0  0  0  0  0  0  0  0  0
   15.9670   21.6020    1.7850 H   0  0  0  0  0  0  0  0  0  0  0  0
   13.5620   19.4620    0.5350 H   0  0  0  0  0  0  0  0  0  0  0  0
   14.5980   19.8830    1.8780 H   0  0  0  0  0  0  0  0  0  0  0  0
   13.6400   17.6660    2.1330 H   0  0  0  0  0  0  0  0  0  0  0  0
   15.3700   17.5100    1.9990 H   0  0  0  0  0  0  0  0  0  0  0  0
   16.2900   16.7180   -0.0730 H   0  0  0  0  0  0  0  0  0  0  0  0
   15.2100   16.3490   -1.3890 H   0  0  0  0  0  0  0  0  0  0  0  0
   16.3370   18.4570   -1.8400 H   0  0  0  0  0  0  0  0  0  0  0  0
   14.6200   18.6740   -1.7040 H   0  0  0  0  0  0  0  0  0  0  0  0
   21.1660   27.6090   -4.3130 H   0  0  0  0  0  0  0  0  0  0  0  0
   22.0330   28.8370   -3.4120 H   0  0  0  0  0  0  0  0  0  0  0  0
   23.4370   24.1770   -2.5610 H   0  0  0  0  0  0  0  0  0  0  0  0
   22.6760   24.8390   -1.1200 H   0  0  0  0  0  0  0  0  0  0  0  0
   21.7990   22.5660   -1.7820 H   0  0  0  0  0  0  0  0  0  0  0  0
   21.2480   23.2440   -3.2900 H   0  0  0  0  0  0  0  0  0  0  0  0
   19.8700   24.9230   -1.8430 H   0  0  0  0  0  0  0  0  0  0  0  0
   20.2390   23.9090   -0.4850 H   0  0  0  0  0  0  0  0  0  0  0  0
   18.8650   22.9970   -3.0250 H   0  0  0  0  0  0  0  0  0  0  0  0
   17.4640   24.6570   -1.8930 H   0  0  0  0  0  0  0  0  0  0  0  0
   17.6040   23.7920   -0.3810 H   0  0  0  0  0  0  0  0  0  0  0  0
   16.3440   22.7270   -2.9440 H   0  0  0  0  0  0  0  0  0  0  0  0
   15.4990   23.3160   -1.5580 H   0  0  0  0  0  0  0  0  0  0  0  0
   17.9530   19.7840   -1.4680 H   0  0  0  0  0  0  0  0  0  0  0  0
   17.7420   20.7260   -2.9000 H   0  0  0  0  0  0  0  0  0  0  0  0
   19.0870   21.6400   -0.3200 H   0  0  0  0  0  0  0  0  0  0  0  0
   19.8940   21.1390   -1.7780 H   0  0  0  0  0  0  0  0  0  0  0  0
   21.2680   25.5740   -3.5550 H   0  0  0  0  0  0  0  0  0  0  0  0
   17.5120   18.4510    0.4260 H   0  0  0  0  0  0  0  0  0  0  0  0
  1  2  1  0  0  0  0
  1 24  1  0  0  0  0
  1 27  2  0  0  0  0
  2  9  1  0  0  0  0
  2 12  1  0  0  0  0
  2 25  1  0  0  0  0
  3  4  2  0  0  0  0
  3  8  1  0  0  0  0
  3 25  1  0  0  0  0
  4  5  1  0  0  0  0
  4 30  1  0  0  0  0
  5  6  2  0  0  0  0
  5 31  1  0  0  0  0
  6  7  1  0  0  0  0
  6 29  1  0  0  0  0
  7  8  2  0  0  0  0
  7 32  1  0  0  0  0
  8 33  1  0  0  0  0
  9 10  1  0  0  0  0
  9 34  1  0  0  0  0
  9 35  1  0  0  0  0
 10 26  1  0  0  0  0
 10 36  1  0  0  0  0
 10 37  1  0  0  0  0
 11 12  1  0  0  0  0
 11 26  1  0  0  0  0
 11 38  1  0  0  0  0
 11 39  1  0  0  0  0
 12 40  1  0  0  0  0
 12 41  1  0  0  0  0
 13 14  1  0  0  0  0
 13 42  1  0  0  0  0
 13 43  1  0  0  0  0
 14 23  1  0  0  0  0
 14 28  2  0  0  0  0
 15 16  1  0  0  0  0
 15 23  1  0  0  0  0
 15 44  1  0  0  0  0
 15 45  1  0  0  0  0
 16 17  1  0  0  0  0
 16 46  1  0  0  0  0
 16 47  1  0  0  0  0
 17 18  1  0  0  0  0
 17 48  1  0  0  0  0
 17 49  1  0  0  0  0
 18 19  1  0  0  0  0
 18 22  1  0  0  0  0
 18 50  1  0  0  0  0
 19 20  1  0  0  0  0
 19 51  1  0  0  0  0
 19 52  1  0  0  0  0
 20 24  1  0  0  0  0
 20 53  1  0  0  0  0
 20 54  1  0  0  0  0
 21 22  1  0  0  0  0
 21 24  1  0  0  0  0
 21 55  1  0  0  0  0
 21 56  1  0  0  0  0
 22 57  1  0  0  0  0
 22 58  1  0  0  0  0
 23 59  1  0  0  0  0
 25 60  1  0  0  0  0
M  END
>  <COMPND>
    title: molecule 1

$$$$
8APS_ligand0.pdb
 OpenBabel06042612053D

 67 70  0  0  1  0  0  0  0  0999 V2000
  -21.4900   26.1420    2.2800 O   0  0  0  0  0  0  0  0  0  0  0  0
  -21.2480   25.2630    3.0970 C   0  0  0  0  0  0  0  0  0  0  0  0
  -21.6110   25.4170    4.5290 C   0  0  0  0  0  0  0  0  0  0  0  0
  -20.6500   24.1220    2.7540 N   0  0  0  0  0  0  0  0  0  0  0  0
  -19.9790   23.1990    3.6890 C   0  0  0  0  0  0  0  0  0  0  0  0
  -18.4690   23.1660    3.3590 C   0  0  0  0  0  0  0  0  0  0  0  0
  -20.5830   23.7190    1.3590 C   0  0  0  0  0  0  0  0  0  0  0  0
  -19.1020   23.8290    1.0390 C   0  0  0  0  0  0  0  0  0  0  0  0
  -18.2260   22.8820    1.8780 C   0  0  0  0  0  0  0  0  0  0  0  0
  -18.5220   21.4330    1.5100 C   0  0  0  0  0  0  0  0  0  0  0  0
  -17.4300   20.4420    1.8920 C   0  0  0  0  0  0  0  0  0  0  0  0
  -16.7690   23.2170    1.5270 C   0  0  0  0  0  0  0  0  0  0  0  0
  -15.7380   22.1850    1.9880 C   0  0  0  0  0  0  0  0  0  0  0  0
  -16.1300   20.9190    1.3850 N   0  0  0  0  0  0  0  0  0  0  0  0
  -15.3420   20.3340    0.4570 C   0  0  0  0  0  0  0  0  0  0  0  0
  -14.3060   20.9130    0.1270 O   0  0  0  0  0  0  0  0  0  0  0  0
  -15.6990   18.9940   -0.2220 C   0  0  2  0  0  0  0  0  0  0  0  0
  -15.5940   17.8880    0.8340 C   0  0  0  0  0  0  0  0  0  0  0  0
  -14.7090   18.6950   -1.3400 C   0  0  0  0  0  0  0  0  0  0  0  0
  -13.3090   18.2710   -0.8780 C   0  0  2  0  0  0  0  0  0  0  0  0
  -12.4900   17.7600   -2.0650 C   0  0  0  0  0  0  0  0  0  0  0  0
  -13.4160   17.2160    0.0750 O   0  0  0  0  0  0  0  0  0  0  0  0
  -14.1540   17.5900    1.2340 C   0  0  2  0  0  0  0  0  0  0  0  0
  -14.0660   16.4820    2.2860 C   0  0  0  0  0  0  0  0  0  0  0  0
  -17.0690   19.0010   -0.7660 N   0  0  0  0  0  0  0  0  0  0  0  0
  -17.6020   20.0050   -1.5400 C   0  0  0  0  0  0  0  0  0  0  0  0
  -16.9100   21.1710   -1.9310 C   0  0  0  0  0  0  0  0  0  0  0  0
  -17.5550   22.1520   -2.6960 C   0  0  0  0  0  0  0  0  0  0  0  0
  -18.8690   21.9860   -3.0450 C   0  0  0  0  0  0  0  0  0  0  0  0
  -19.6630   23.2620   -3.9700 Cl  0  0  0  0  0  0  0  0  0  0  0  0
  -19.5910   20.8640   -2.6800 C   0  0  0  0  0  0  0  0  0  0  0  0
  -18.9460   19.8830   -1.9120 C   0  0  0  0  0  0  0  0  0  0  0  0
  -22.1920   24.5630    4.8300 H   0  0  0  0  0  0  0  0  0  0  0  0
  -20.7200   25.4590    5.1550 H   0  0  0  0  0  0  0  0  0  0  0  0
  -20.4010   22.2060    3.5700 H   0  0  0  0  0  0  0  0  0  0  0  0
  -20.1040   23.4270    4.7450 H   0  0  0  0  0  0  0  0  0  0  0  0
  -17.9680   22.4320    3.9900 H   0  0  0  0  0  0  0  0  0  0  0  0
  -18.0430   24.1330    3.6290 H   0  0  0  0  0  0  0  0  0  0  0  0
  -21.1670   24.3430    0.6810 H   0  0  0  0  0  0  0  0  0  0  0  0
  -20.9580   22.7030    1.2390 H   0  0  0  0  0  0  0  0  0  0  0  0
  -18.7790   24.8630    1.1770 H   0  0  0  0  0  0  0  0  0  0  0  0
  -18.9620   23.6260   -0.0240 H   0  0  0  0  0  0  0  0  0  0  0  0
  -18.6720   21.3740    0.4360 H   0  0  0  0  0  0  0  0  0  0  0  0
  -19.4620   21.1020    1.9360 H   0  0  0  0  0  0  0  0  0  0  0  0
  -17.7150   19.4560    1.5750 H   0  0  0  0  0  0  0  0  0  0  0  0
  -17.3680   20.3700    2.9780 H   0  0  0  0  0  0  0  0  0  0  0  0
  -16.4970   24.1960    1.9230 H   0  0  0  0  0  0  0  0  0  0  0  0
  -16.6690   23.3120    0.4440 H   0  0  0  0  0  0  0  0  0  0  0  0
  -15.7530   22.0900    3.0740 H   0  0  0  0  0  0  0  0  0  0  0  0
  -14.7340   22.5400    1.7500 H   0  0  0  0  0  0  0  0  0  0  0  0
  -16.0300   16.9720    0.4320 H   0  0  0  0  0  0  0  0  0  0  0  0
  -16.1560   18.0950    1.7410 H   0  0  0  0  0  0  0  0  0  0  0  0
  -14.6250   19.5210   -2.0460 H   0  0  0  0  0  0  0  0  0  0  0  0
  -15.1180   17.8710   -1.9280 H   0  0  0  0  0  0  0  0  0  0  0  0
  -12.7690   19.1030   -0.4340 H   0  0  0  0  0  0  0  0  0  0  0  0
  -11.5150   17.3990   -1.7420 H   0  0  0  0  0  0  0  0  0  0  0  0
  -12.9920   16.9310   -2.5650 H   0  0  0  0  0  0  0  0  0  0  0  0
  -12.3260   18.5480   -2.8010 H   0  0  0  0  0  0  0  0  0  0  0  0
  -13.6910   18.4770    1.6710 H   0  0  0  0  0  0  0  0  0  0  0  0
  -13.0300   16.2970    2.5690 H   0  0  0  0  0  0  0  0  0  0  0  0
  -14.6100   16.7550    3.1910 H   0  0  0  0  0  0  0  0  0  0  0  0
  -14.4840   15.5470    1.9120 H   0  0  0  0  0  0  0  0  0  0  0  0
  -17.5960   18.1430   -0.6690 H   0  0  0  0  0  0  0  0  0  0  0  0
  -15.8680   21.3510   -1.7480 H   0  0  0  0  0  0  0  0  0  0  0  0
  -17.0160   23.0300   -3.0080 H   0  0  0  0  0  0  0  0  0  0  0  0
  -20.6250   20.7500   -2.9660 H   0  0  0  0  0  0  0  0  0  0  0  0
  -19.5070   19.0050   -1.6270 H   0  0  0  0  0  0  0  0  0  0  0  0
  1  2  2  0  0  0  0
  2  3  1  0  0  0  0
  2  4  1  0  0  0  0
  3 33  1  0  0  0  0
  3 34  1  0  0  0  0
  4  5  1  0  0  0  0
  4  7  1  0  0  0  0
  5  6  1  0  0  0  0
  5 35  1  0  0  0  0
  5 36  1  0  0  0  0
  6  9  1  0  0  0  0
  6 37  1  0  0  0  0
  6 38  1  0  0  0  0
  7  8  1  0  0  0  0
  7 39  1  0  0  0  0
  7 40  1  0  0  0  0
  8  9  1  0  0  0  0
  8 41  1  0  0  0  0
  8 42  1  0  0  0  0
  9 10  1  0  0  0  0
  9 12  1  0  0  0  0
 10 11  1  0  0  0  0
 10 43  1  0  0  0  0
 10 44  1  0  0  0  0
 11 14  1  0  0  0  0
 11 45  1  0  0  0  0
 11 46  1  0  0  0  0
 12 13  1  0  0  0  0
 12 47  1  0  0  0  0
 12 48  1  0  0  0  0
 13 14  1  0  0  0  0
 13 49  1  0  0  0  0
 13 50  1  0  0  0  0
 14 15  1  0  0  0  0
 15 16  2  0  0  0  0
 17 15  1  1  0  0  0
 17 18  1  0  0  0  0
 17 19  1  0  0  0  0
 17 25  1  0  0  0  0
 18 23  1  0  0  0  0
 18 51  1  0  0  0  0
 18 52  1  0  0  0  0
 19 20  1  0  0  0  0
 19 53  1  0  0  0  0
 19 54  1  0  0  0  0
 20 21  1  0  0  0  0
 20 22  1  0  0  0  0
 20 55  1  1  0  0  0
 21 56  1  0  0  0  0
 21 57  1  0  0  0  0
 21 58  1  0  0  0  0
 22 23  1  0  0  0  0
 23 24  1  0  0  0  0
 23 59  1  1  0  0  0
 24 60  1  0  0  0  0
 24 61  1  0  0  0  0
 24 62  1  0  0  0  0
 25 26  1  0  0  0  0
 25 63  1  0  0  0  0
 26 27  2  0  0  0  0
 26 32  1  0  0  0  0
 27 28  1  0  0  0  0
 27 64  1  0  0  0  0
 28 29  2  0  0  0  0
 28 65  1  0  0  0  0
 29 30  1  0  0  0  0
 29 31  1  0  0  0  0
 31 32  2  0  0  0  0
 31 66  1  0  0  0  0
 32 67  1  0  0  0  0
M  END
>  <COMPND>
    title: molecule 1

$$$$
8AQ1_ligand0.pdb
 OpenBabel06042612053D

 67 70  0  0  1  0  0  0  0  0999 V2000
  -21.3860  -26.5880   -1.7180 O   0  0  0  0  0  0  0  0  0  0  0  0
  -21.4120  -25.6760   -2.5060 C   0  0  0  0  0  0  0  0  0  0  0  0
  -22.4470  -25.6030   -3.5720 C   0  0  0  0  0  0  0  0  0  0  0  0
  -20.5120  -24.7330   -2.4140 N   0  0  0  0  0  0  0  0  0  0  0  0
  -19.1060  -25.1060   -2.1370 C   0  0  0  0  0  0  0  0  0  0  0  0
  -18.5300  -23.9670   -1.3100 C   0  0  0  0  0  0  0  0  0  0  0  0
  -20.9020  -23.3340   -2.4870 C   0  0  0  0  0  0  0  0  0  0  0  0
  -19.7380  -22.6050   -3.0900 C   0  0  0  0  0  0  0  0  0  0  0  0
  -18.4980  -22.7260   -2.1930 C   0  0  0  0  0  0  0  0  0  0  0  0
  -17.2530  -22.5580   -3.0610 C   0  0  0  0  0  0  0  0  0  0  0  0
  -18.2060  -21.3940   -1.5230 C   0  0  0  0  0  0  0  0  0  0  0  0
  -17.2290  -21.0800   -2.6580 C   0  0  0  0  0  0  0  0  0  0  0  0
  -15.8460  -20.5230   -2.3630 C   0  0  0  0  0  0  0  0  0  0  0  0
  -16.0060  -19.4550   -1.3900 N   0  0  0  0  0  0  0  0  0  0  0  0
  -15.1130  -19.2550   -0.4300 C   0  0  0  0  0  0  0  0  0  0  0  0
  -14.1240  -19.9870   -0.2650 O   0  0  0  0  0  0  0  0  0  0  0  0
  -15.4360  -18.1230    0.4900 C   0  0  1  0  0  0  0  0  0  0  0  0
  -14.4220  -18.0210    1.6150 C   0  0  0  0  0  0  0  0  0  0  0  0
  -15.3740  -16.8340   -0.3030 C   0  0  0  0  0  0  0  0  0  0  0  0
  -13.9420  -16.4530   -0.7020 C   0  0  1  0  0  0  0  0  0  0  0  0
  -13.9420  -15.1080   -1.4400 C   0  0  0  0  0  0  0  0  0  0  0  0
  -13.1050  -16.3400    0.4370 O   0  0  0  0  0  0  0  0  0  0  0  0
  -13.0290  -17.5740    1.1510 C   0  0  1  0  0  0  0  0  0  0  0  0
  -12.1250  -17.3230    2.3610 C   0  0  0  0  0  0  0  0  0  0  0  0
  -16.8110  -18.2450    0.9870 N   0  0  0  0  0  0  0  0  0  0  0  0
  -17.3610  -19.3540    1.5430 C   0  0  0  0  0  0  0  0  0  0  0  0
  -16.6700  -20.5540    1.8050 C   0  0  0  0  0  0  0  0  0  0  0  0
  -17.3190  -21.6310    2.3930 C   0  0  0  0  0  0  0  0  0  0  0  0
  -18.6410  -21.5170    2.7240 C   0  0  0  0  0  0  0  0  0  0  0  0
  -19.5200  -22.8430    3.5080 Cl  0  0  0  0  0  0  0  0  0  0  0  0
  -19.3250  -20.3370    2.5020 C   0  0  0  0  0  0  0  0  0  0  0  0
  -18.6920  -19.2700    1.9160 C   0  0  0  0  0  0  0  0  0  0  0  0
  -23.1310  -26.4170   -3.3550 H   0  0  0  0  0  0  0  0  0  0  0  0
  -23.0610  -24.7130   -3.4880 H   0  0  0  0  0  0  0  0  0  0  0  0
  -18.5600  -25.2400   -3.0720 H   0  0  0  0  0  0  0  0  0  0  0  0
  -19.0070  -26.0370   -1.5760 H   0  0  0  0  0  0  0  0  0  0  0  0
  -17.5280  -24.2260   -0.9670 H   0  0  0  0  0  0  0  0  0  0  0  0
  -19.1200  -23.8030   -0.4060 H   0  0  0  0  0  0  0  0  0  0  0  0
  -21.1340  -22.9520   -1.4930 H   0  0  0  0  0  0  0  0  0  0  0  0
  -21.7740  -23.1380   -3.1060 H   0  0  0  0  0  0  0  0  0  0  0  0
  -20.0030  -21.5650   -3.2650 H   0  0  0  0  0  0  0  0  0  0  0  0
  -19.5580  -23.0160   -4.0850 H   0  0  0  0  0  0  0  0  0  0  0  0
  -17.3730  -22.7280   -4.1310 H   0  0  0  0  0  0  0  0  0  0  0  0
  -16.3980  -23.1190   -2.6800 H   0  0  0  0  0  0  0  0  0  0  0  0
  -17.7010  -21.5290   -0.5670 H   0  0  0  0  0  0  0  0  0  0  0  0
  -19.0430  -20.7030   -1.4260 H   0  0  0  0  0  0  0  0  0  0  0  0
  -17.7500  -20.4800   -3.4070 H   0  0  0  0  0  0  0  0  0  0  0  0
  -15.3880  -20.1190   -3.2670 H   0  0  0  0  0  0  0  0  0  0  0  0
  -15.1880  -21.3170   -2.0050 H   0  0  0  0  0  0  0  0  0  0  0  0
  -16.8240  -18.8630   -1.4450 H   0  0  0  0  0  0  0  0  0  0  0  0
  -14.3420  -18.9530    2.1740 H   0  0  0  0  0  0  0  0  0  0  0  0
  -14.7910  -17.2870    2.3330 H   0  0  0  0  0  0  0  0  0  0  0  0
  -15.7770  -16.0230    0.3070 H   0  0  0  0  0  0  0  0  0  0  0  0
  -16.0100  -16.8620   -1.1890 H   0  0  0  0  0  0  0  0  0  0  0  0
  -13.5210  -17.2000   -1.3770 H   0  0  0  0  0  0  0  0  0  0  0  0
  -12.9350  -14.8380   -1.7570 H   0  0  0  0  0  0  0  0  0  0  0  0
  -14.5660  -15.1480   -2.3330 H   0  0  0  0  0  0  0  0  0  0  0  0
  -14.3170  -14.3060   -0.8030 H   0  0  0  0  0  0  0  0  0  0  0  0
  -12.5530  -18.3230    0.5280 H   0  0  0  0  0  0  0  0  0  0  0  0
  -11.1710  -16.8910    2.0680 H   0  0  0  0  0  0  0  0  0  0  0  0
  -12.6000  -16.6080    3.0310 H   0  0  0  0  0  0  0  0  0  0  0  0
  -11.9310  -18.2410    2.9180 H   0  0  0  0  0  0  0  0  0  0  0  0
  -17.3310  -17.3810    1.0810 H   0  0  0  0  0  0  0  0  0  0  0  0
  -15.6230  -20.6870    1.6100 H   0  0  0  0  0  0  0  0  0  0  0  0
  -16.7810  -22.5440    2.5970 H   0  0  0  0  0  0  0  0  0  0  0  0
  -20.3630  -20.2520    2.7870 H   0  0  0  0  0  0  0  0  0  0  0  0
  -19.2470  -18.3570    1.7530 H   0  0  0  0  0  0  0  0  0  0  0  0
  1  2  2  0  0  0  0
  2  3  1  0  0  0  0
  2  4  1  0  0  0  0
  3 33  1  0  0  0  0
  3 34  1  0  0  0  0
  4  5  1  0  0  0  0
  4  7  1  0  0  0  0
  5  6  1  0  0  0  0
  5 35  1  0  0  0  0
  5 36  1  0  0  0  0
  6  9  1  0  0  0  0
  6 37  1  0  0  0  0
  6 38  1  0  0  0  0
  7  8  1  0  0  0  0
  7 39  1  0  0  0  0
  7 40  1  0  0  0  0
  8  9  1  0  0  0  0
  8 41  1  0  0  0  0
  8 42  1  0  0  0  0
  9 10  1  0  0  0  0
  9 11  1  0  0  0  0
 10 12  1  0  0  0  0
 10 43  1  0  0  0  0
 10 44  1  0  0  0  0
 11 12  1  0  0  0  0
 11 45  1  0  0  0  0
 11 46  1  0  0  0  0
 12 13  1  0  0  0  0
 12 47  1  0  0  0  0
 13 14  1  0  0  0  0
 13 48  1  0  0  0  0
 13 49  1  0  0  0  0
 14 15  1  0  0  0  0
 14 50  1  0  0  0  0
 15 16  2  0  0  0  0
 17 15  1  6  0  0  0
 17 18  1  0  0  0  0
 17 19  1  0  0  0  0
 17 25  1  0  0  0  0
 18 23  1  0  0  0  0
 18 51  1  0  0  0  0
 18 52  1  0  0  0  0
 19 20  1  0  0  0  0
 19 53  1  0  0  0  0
 19 54  1  0  0  0  0
 20 21  1  0  0  0  0
 20 22  1  0  0  0  0
 20 55  1  6  0  0  0
 21 56  1  0  0  0  0
 21 57  1  0  0  0  0
 21 58  1  0  0  0  0
 22 23  1  0  0  0  0
 23 24  1  0  0  0  0
 23 59  1  6  0  0  0
 24 60  1  0  0  0  0
 24 61  1  0  0  0  0
 24 62  1  0  0  0  0
 25 26  1  0  0  0  0
 25 63  1  0  0  0  0
 26 27  2  0  0  0  0
 26 32  1  0  0  0  0
 27 28  1  0  0  0  0
 27 64  1  0  0  0  0
 28 29  2  0  0  0  0
 28 65  1  0  0  0  0
 29 30  1  0  0  0  0
 29 31  1  0  0  0  0
 31 32  2  0  0  0  0
 31 66  1  0  0  0  0
 32 67  1  0  0  0  0
M  END
>  <COMPND>
    title: molecule 1

$$$$
8AQC_ligand0.pdb
 OpenBabel06042612053D

 58 61  0  0  0  0  0  0  0  0999 V2000
   19.9510  -23.1090   -2.2810 C   0  0  0  0  0  0  0  0  0  0  0  0
   21.4300  -20.7890    2.8750 C   0  0  0  0  0  0  0  0  0  0  0  0
   21.4620  -23.1860   -2.5050 C   0  0  0  0  0  0  0  0  0  0  0  0
   21.7540  -24.4090   -3.3730 C   0  0  0  0  0  0  0  0  0  0  0  0
   25.1390  -19.2970   -0.0040 C   0  0  0  0  0  0  0  0  0  0  0  0
   21.1580  -25.6810   -2.8080 C   0  0  0  0  0  0  0  0  0  0  0  0
   22.3360  -23.0330   -1.2340 C   0  0  0  0  0  0  0  0  0  0  0  0
   23.2550  -22.0350   -1.9600 C   0  0  0  0  0  0  0  0  0  0  0  0
   24.9320  -20.6230   -0.7640 C   0  0  0  0  0  0  0  0  0  0  0  0
   23.3700  -20.0610    1.6260 C   0  0  0  0  0  0  0  0  0  0  0  0
   22.0700  -19.8380    2.1010 C   0  0  0  0  0  0  0  0  0  0  0  0
   19.7100  -25.5450   -2.5750 N   0  0  0  0  0  0  0  0  0  0  0  0
   23.7080  -20.8330   -1.2850 N   0  0  0  0  0  0  0  0  0  0  0  0
   19.3460  -24.3880   -1.7450 C   0  0  0  0  0  0  0  0  0  0  0  0
   23.9750  -19.0640    0.8590 N   0  0  0  0  0  0  0  0  0  0  0  0
   17.6420  -26.4250   -2.5190 O   0  0  0  0  0  0  0  0  0  0  0  0
   18.7910  -26.4590   -2.9430 C   0  0  0  0  0  0  0  0  0  0  0  0
   19.2080  -27.5280   -3.9410 C   0  0  0  0  0  0  0  0  0  0  0  0
   25.8520  -21.4430   -0.8380 O   0  0  0  0  0  0  0  0  0  0  0  0
   22.0590  -21.9850    3.1270 C   0  0  0  0  0  0  0  0  0  0  0  0
   21.2520  -23.2000    4.0670 Cl  0  0  0  0  0  0  0  0  0  0  0  0
   23.3220  -22.2480    2.6550 C   0  0  0  0  0  0  0  0  0  0  0  0
   23.9780  -21.2960    1.9020 C   0  0  0  0  0  0  0  0  0  0  0  0
   25.2600  -18.1580   -1.0300 C   0  0  0  0  0  0  0  0  0  0  0  0
   25.6850  -16.8550   -0.3880 C   0  0  0  0  0  0  0  0  0  0  0  0
   26.9060  -16.9860    0.3480 O   0  0  0  0  0  0  0  0  0  0  0  0
   26.7380  -17.9300    1.4050 C   0  0  0  0  0  0  0  0  0  0  0  0
   26.4230  -19.2990    0.8550 C   0  0  0  0  0  0  0  0  0  0  0  0
   22.1480  -21.8870   -3.0090 C   0  0  0  0  0  0  0  0  0  0  0  0
   19.4570  -22.8730   -3.2240 H   0  0  0  0  0  0  0  0  0  0  0  0
   19.7030  -22.2850   -1.6100 H   0  0  0  0  0  0  0  0  0  0  0  0
   20.4420  -20.5990    3.2590 H   0  0  0  0  0  0  0  0  0  0  0  0
   22.8300  -24.5440   -3.4900 H   0  0  0  0  0  0  0  0  0  0  0  0
   21.3660  -24.2530   -4.3810 H   0  0  0  0  0  0  0  0  0  0  0  0
   21.6050  -25.8510   -1.8280 H   0  0  0  0  0  0  0  0  0  0  0  0
   21.5030  -26.5330   -3.3810 H   0  0  0  0  0  0  0  0  0  0  0  0
   22.8390  -23.9440   -0.9070 H   0  0  0  0  0  0  0  0  0  0  0  0
   21.8000  -22.5720   -0.4030 H   0  0  0  0  0  0  0  0  0  0  0  0
   24.0780  -22.5810   -2.4200 H   0  0  0  0  0  0  0  0  0  0  0  0
   21.5740  -18.9000    1.9000 H   0  0  0  0  0  0  0  0  0  0  0  0
   23.0240  -20.1000   -1.1580 H   0  0  0  0  0  0  0  0  0  0  0  0
   18.2680  -24.2430   -1.6600 H   0  0  0  0  0  0  0  0  0  0  0  0
   19.7070  -24.5560   -0.7310 H   0  0  0  0  0  0  0  0  0  0  0  0
   23.4660  -18.2010    0.7170 H   0  0  0  0  0  0  0  0  0  0  0  0
   20.0850  -27.2770   -4.5260 H   0  0  0  0  0  0  0  0  0  0  0  0
   19.4260  -28.4330   -3.3890 H   0  0  0  0  0  0  0  0  0  0  0  0
   23.7950  -23.1880    2.8660 H   0  0  0  0  0  0  0  0  0  0  0  0
   24.9740  -21.5560    1.5980 H   0  0  0  0  0  0  0  0  0  0  0  0
   24.3190  -18.0130   -1.5640 H   0  0  0  0  0  0  0  0  0  0  0  0
   26.0010  -18.4210   -1.7870 H   0  0  0  0  0  0  0  0  0  0  0  0
   24.9010  -16.4670    0.2620 H   0  0  0  0  0  0  0  0  0  0  0  0
   25.8350  -16.1020   -1.1610 H   0  0  0  0  0  0  0  0  0  0  0  0
   25.9590  -17.5910    2.0890 H   0  0  0  0  0  0  0  0  0  0  0  0
   27.6570  -17.9680    1.9880 H   0  0  0  0  0  0  0  0  0  0  0  0
   27.2760  -19.5990    0.2490 H   0  0  0  0  0  0  0  0  0  0  0  0
   26.3800  -19.9990    1.6850 H   0  0  0  0  0  0  0  0  0  0  0  0
   21.5320  -21.0040   -2.8510 H   0  0  0  0  0  0  0  0  0  0  0  0
   22.5010  -21.9260   -4.0400 H   0  0  0  0  0  0  0  0  0  0  0  0
  1  3  1  0  0  0  0
  1 14  1  0  0  0  0
  1 30  1  0  0  0  0
  1 31  1  0  0  0  0
  2 11  2  0  0  0  0
  2 20  1  0  0  0  0
  2 32  1  0  0  0  0
  3  4  1  0  0  0  0
  3  7  1  0  0  0  0
  3 29  1  0  0  0  0
  4  6  1  0  0  0  0
  4 33  1  0  0  0  0
  4 34  1  0  0  0  0
  5  9  1  0  0  0  0
  5 15  1  0  0  0  0
  5 24  1  0  0  0  0
  5 28  1  0  0  0  0
  6 12  1  0  0  0  0
  6 35  1  0  0  0  0
  6 36  1  0  0  0  0
  7  8  1  0  0  0  0
  7 37  1  0  0  0  0
  7 38  1  0  0  0  0
  8 13  1  0  0  0  0
  8 29  1  0  0  0  0
  8 39  1  0  0  0  0
  9 13  1  0  0  0  0
  9 19  2  0  0  0  0
 10 11  1  0  0  0  0
 10 15  1  0  0  0  0
 10 23  2  0  0  0  0
 11 40  1  0  0  0  0
 12 14  1  0  0  0  0
 12 17  1  0  0  0  0
 13 41  1  0  0  0  0
 14 42  1  0  0  0  0
 14 43  1  0  0  0  0
 15 44  1  0  0  0  0
 16 17  2  0  0  0  0
 17 18  1  0  0  0  0
 18 45  1  0  0  0  0
 18 46  1  0  0  0  0
 20 21  1  0  0  0  0
 20 22  2  0  0  0  0
 22 23  1  0  0  0  0
 22 47  1  0  0  0  0
 23 48  1  0  0  0  0
 24 25  1  0  0  0  0
 24 49  1  0  0  0  0
 24 50  1  0  0  0  0
 25 26  1  0  0  0  0
 25 51  1  0  0  0  0
 25 52  1  0  0  0  0
 26 27  1  0  0  0  0
 27 28  1  0  0  0  0
 27 53  1  0  0  0  0
 27 54  1  0  0  0  0
 28 55  1  0  0  0  0
 28 56  1  0  0  0  0
 29 57  1  0  0  0  0
 29 58  1  0  0  0  0
M  END
>  <COMPND>
    title: molecule 1

$$$$
8AQE_ligand0.pdb
 OpenBabel06042612053D

 58 61  0  0  0  0  0  0  0  0999 V2000
   21.0410  -26.1590   -3.4720 C   0  0  0  0  0  0  0  0  0  0  0  0
   23.2140  -22.9240   -1.9680 C   0  0  0  0  0  0  0  0  0  0  0  0
   22.0240  -23.8420   -1.5920 C   0  0  0  0  0  0  0  0  0  0  0  0
   21.5540  -23.7550   -3.0490 C   0  0  0  0  0  0  0  0  0  0  0  0
   20.1620  -27.0780   -4.2980 C   0  0  0  0  0  0  0  0  0  0  0  0
   24.5560  -23.3140   -1.3350 C   0  0  0  0  0  0  0  0  0  0  0  0
   25.6370  -22.2890   -1.5780 C   0  0  0  0  0  0  0  0  0  0  0  0
   26.0210  -20.1710   -0.3420 C   0  0  0  0  0  0  0  0  0  0  0  0
   21.8510  -26.5970   -2.6660 O   0  0  0  0  0  0  0  0  0  0  0  0
   27.5640  -16.7770    0.5070 O   0  0  0  0  0  0  0  0  0  0  0  0
   20.8610  -24.8470   -3.6920 N   0  0  0  0  0  0  0  0  0  0  0  0
   25.1870  -20.9720   -1.1140 N   0  0  0  0  0  0  0  0  0  0  0  0
   27.1640  -20.5450   -0.1030 O   0  0  0  0  0  0  0  0  0  0  0  0
   25.5240  -18.8550    0.2960 C   0  0  0  0  0  0  0  0  0  0  0  0
   24.1030  -18.9440    0.6860 N   0  0  0  0  0  0  0  0  0  0  0  0
   23.5080  -19.9500    1.4610 C   0  0  0  0  0  0  0  0  0  0  0  0
   24.1790  -21.1060    1.9010 C   0  0  0  0  0  0  0  0  0  0  0  0
   23.5200  -22.0530    2.6600 C   0  0  0  0  0  0  0  0  0  0  0  0
   22.1870  -21.8730    2.9660 C   0  0  0  0  0  0  0  0  0  0  0  0
   21.3590  -23.0640    3.9200 Cl  0  0  0  0  0  0  0  0  0  0  0  0
   21.4970  -20.7580    2.5470 C   0  0  0  0  0  0  0  0  0  0  0  0
   22.1520  -19.7970    1.8010 C   0  0  0  0  0  0  0  0  0  0  0  0
   26.3350  -18.5630    1.5820 C   0  0  0  0  0  0  0  0  0  0  0  0
   27.6780  -17.9160    1.3480 C   0  0  0  0  0  0  0  0  0  0  0  0
   27.1000  -17.1580   -0.7770 C   0  0  0  0  0  0  0  0  0  0  0  0
   25.6920  -17.6900   -0.7100 C   0  0  0  0  0  0  0  0  0  0  0  0
   24.0510  -20.5010   -1.9170 C   0  0  0  0  0  0  0  0  0  0  0  0
   22.8800  -21.4400   -1.7460 C   0  0  0  0  0  0  0  0  0  0  0  0
   23.0060  -23.4330   -3.4160 C   0  0  0  0  0  0  0  0  0  0  0  0
   21.3240  -23.4090   -0.8760 H   0  0  0  0  0  0  0  0  0  0  0  0
   22.3720  -24.8080   -1.2340 H   0  0  0  0  0  0  0  0  0  0  0  0
   21.1820  -22.8140   -3.3510 H   0  0  0  0  0  0  0  0  0  0  0  0
   20.7340  -27.8660   -4.7880 H   0  0  0  0  0  0  0  0  0  0  0  0
   19.3940  -27.5230   -3.6650 H   0  0  0  0  0  0  0  0  0  0  0  0
   24.8880  -24.2850   -1.7040 H   0  0  0  0  0  0  0  0  0  0  0  0
   24.4210  -23.4220   -0.2580 H   0  0  0  0  0  0  0  0  0  0  0  0
   25.8790  -22.2400   -2.6410 H   0  0  0  0  0  0  0  0  0  0  0  0
   26.5450  -22.6380   -1.0840 H   0  0  0  0  0  0  0  0  0  0  0  0
   20.1950  -24.6040   -4.4130 H   0  0  0  0  0  0  0  0  0  0  0  0
   23.4940  -18.2270    0.3020 H   0  0  0  0  0  0  0  0  0  0  0  0
   25.2220  -21.2950    1.7310 H   0  0  0  0  0  0  0  0  0  0  0  0
   24.0450  -22.9230    3.0110 H   0  0  0  0  0  0  0  0  0  0  0  0
   20.4570  -20.6300    2.7960 H   0  0  0  0  0  0  0  0  0  0  0  0
   21.6100  -18.9190    1.4800 H   0  0  0  0  0  0  0  0  0  0  0  0
   26.4530  -19.4460    2.2100 H   0  0  0  0  0  0  0  0  0  0  0  0
   25.7670  -17.8540    2.1840 H   0  0  0  0  0  0  0  0  0  0  0  0
   28.0910  -17.5910    2.3030 H   0  0  0  0  0  0  0  0  0  0  0  0
   28.4020  -18.6190    0.9390 H   0  0  0  0  0  0  0  0  0  0  0  0
   27.7760  -17.8890   -1.2240 H   0  0  0  0  0  0  0  0  0  0  0  0
   27.1270  -16.2810   -1.4230 H   0  0  0  0  0  0  0  0  0  0  0  0
   25.0580  -16.8580   -0.4000 H   0  0  0  0  0  0  0  0  0  0  0  0
   25.3600  -17.9610   -1.7120 H   0  0  0  0  0  0  0  0  0  0  0  0
   24.3550  -20.4920   -2.9650 H   0  0  0  0  0  0  0  0  0  0  0  0
   23.7380  -19.4840   -1.7150 H   0  0  0  0  0  0  0  0  0  0  0  0
   22.4390  -21.2960   -0.7600 H   0  0  0  0  0  0  0  0  0  0  0  0
   22.1510  -21.0880   -2.4660 H   0  0  0  0  0  0  0  0  0  0  0  0
   23.5850  -24.3300   -3.6420 H   0  0  0  0  0  0  0  0  0  0  0  0
   23.1400  -22.6780   -4.1920 H   0  0  0  0  0  0  0  0  0  0  0  0
  1  5  1  0  0  0  0
  1  9  2  0  0  0  0
  1 11  1  0  0  0  0
  2  3  1  0  0  0  0
  2  6  1  0  0  0  0
  2 28  1  0  0  0  0
  2 29  1  0  0  0  0
  3  4  1  0  0  0  0
  3 30  1  0  0  0  0
  3 31  1  0  0  0  0
  4 11  1  0  0  0  0
  4 29  1  0  0  0  0
  4 32  1  0  0  0  0
  5 33  1  0  0  0  0
  5 34  1  0  0  0  0
  6  7  1  0  0  0  0
  6 35  1  0  0  0  0
  6 36  1  0  0  0  0
  7 12  1  0  0  0  0
  7 37  1  0  0  0  0
  7 38  1  0  0  0  0
  8 12  1  0  0  0  0
  8 13  2  0  0  0  0
  8 14  1  0  0  0  0
 10 24  1  0  0  0  0
 10 25  1  0  0  0  0
 11 39  1  0  0  0  0
 12 27  1  0  0  0  0
 14 15  1  0  0  0  0
 14 23  1  0  0  0  0
 14 26  1  0  0  0  0
 15 16  1  0  0  0  0
 15 40  1  0  0  0  0
 16 17  2  0  0  0  0
 16 22  1  0  0  0  0
 17 18  1  0  0  0  0
 17 41  1  0  0  0  0
 18 19  2  0  0  0  0
 18 42  1  0  0  0  0
 19 20  1  0  0  0  0
 19 21  1  0  0  0  0
 21 22  2  0  0  0  0
 21 43  1  0  0  0  0
 22 44  1  0  0  0  0
 23 24  1  0  0  0  0
 23 45  1  0  0  0  0
 23 46  1  0  0  0  0
 24 47  1  0  0  0  0
 24 48  1  0  0  0  0
 25 26  1  0  0  0  0
 25 49  1  0  0  0  0
 25 50  1  0  0  0  0
 26 51  1  0  0  0  0
 26 52  1  0  0  0  0
 27 28  1  0  0  0  0
 27 53  1  0  0  0  0
 27 54  1  0  0  0  0
 28 55  1  0  0  0  0
 28 56  1  0  0  0  0
 29 57  1  0  0  0  0
 29 58  1  0  0  0  0
M  END
>  <COMPND>
    title: molecule 1

$$$$
8AQZ_ligand0.pdb
 OpenBabel06042612053D

 57 59  0  0  0  0  0  0  0  0999 V2000
  -20.2270  -24.0820   -1.1810 C   0  0  0  0  0  0  0  0  0  0  0  0
  -19.5910  -20.9020    2.6420 C   0  0  0  0  0  0  0  0  0  0  0  0
  -19.0230  -23.3330   -1.7890 C   0  0  0  0  0  0  0  0  0  0  0  0
  -19.0900  -21.8430   -1.4400 C   0  0  0  0  0  0  0  0  0  0  0  0
  -16.9850  -21.4430    1.8570 C   0  0  0  0  0  0  0  0  0  0  0  0
  -17.8760  -21.0690   -1.9210 C   0  0  0  0  0  0  0  0  0  0  0  0
  -15.6600  -21.0830   -0.6830 C   0  0  0  0  0  0  0  0  0  0  0  0
  -18.9430  -22.0560    3.0130 C   0  0  0  0  0  0  0  0  0  0  0  0
  -21.5230  -25.0830   -3.1220 N   0  0  0  0  0  0  0  0  0  0  0  0
  -16.6310  -21.6770   -1.4140 N   0  0  0  0  0  0  0  0  0  0  0  0
  -17.0130  -19.3720    0.5790 N   0  0  0  0  0  0  0  0  0  0  0  0
  -19.9940  -26.6250   -2.4240 O   0  0  0  0  0  0  0  0  0  0  0  0
  -20.8990  -26.2630   -3.1910 C   0  0  0  0  0  0  0  0  0  0  0  0
  -21.3350  -27.2630   -4.2420 C   0  0  0  0  0  0  0  0  0  0  0  0
  -21.4960  -24.1010   -2.0280 C   0  0  0  0  0  0  0  0  0  0  0  0
  -14.6410  -21.7520   -0.4420 O   0  0  0  0  0  0  0  0  0  0  0  0
  -15.7720  -19.6500   -0.1300 C   0  0  0  0  0  0  0  0  0  0  0  0
  -17.6060  -20.2570    1.4500 C   0  0  0  0  0  0  0  0  0  0  0  0
  -17.6580  -22.3430    2.6490 C   0  0  0  0  0  0  0  0  0  0  0  0
  -19.7820  -23.1860    3.9950 Cl  0  0  0  0  0  0  0  0  0  0  0  0
  -18.9250  -20.0050    1.8390 C   0  0  0  0  0  0  0  0  0  0  0  0
  -15.6250  -18.6430   -1.2880 C   0  0  0  0  0  0  0  0  0  0  0  0
  -15.4670  -17.2470   -0.7560 C   0  0  0  0  0  0  0  0  0  0  0  0
  -14.3730  -17.1630    0.1630 O   0  0  0  0  0  0  0  0  0  0  0  0
  -14.5610  -17.9940    1.2990 C   0  0  0  0  0  0  0  0  0  0  0  0
  -14.6110  -19.4220    0.8590 C   0  0  0  0  0  0  0  0  0  0  0  0
  -16.5030  -23.0870   -1.8390 C   0  0  0  0  0  0  0  0  0  0  0  0
  -17.6830  -23.9040   -1.3310 C   0  0  0  0  0  0  0  0  0  0  0  0
  -20.4790  -23.5740   -0.2540 H   0  0  0  0  0  0  0  0  0  0  0  0
  -19.9340  -25.0460   -0.7910 H   0  0  0  0  0  0  0  0  0  0  0  0
  -20.6070  -20.7110    2.9500 H   0  0  0  0  0  0  0  0  0  0  0  0
  -19.0610  -23.4410   -2.8730 H   0  0  0  0  0  0  0  0  0  0  0  0
  -19.1780  -21.7240   -0.3610 H   0  0  0  0  0  0  0  0  0  0  0  0
  -19.9940  -21.4090   -1.8650 H   0  0  0  0  0  0  0  0  0  0  0  0
  -15.9650  -21.7120    1.6680 H   0  0  0  0  0  0  0  0  0  0  0  0
  -18.0170  -20.0320   -1.6430 H   0  0  0  0  0  0  0  0  0  0  0  0
  -17.8440  -21.0750   -3.0110 H   0  0  0  0  0  0  0  0  0  0  0  0
  -22.1900  -24.8950   -3.8570 H   0  0  0  0  0  0  0  0  0  0  0  0
  -17.5770  -18.6070    0.2300 H   0  0  0  0  0  0  0  0  0  0  0  0
  -20.5410  -27.9450   -4.5490 H   0  0  0  0  0  0  0  0  0  0  0  0
  -22.2230  -27.8120   -3.9330 H   0  0  0  0  0  0  0  0  0  0  0  0
  -21.6930  -23.1110   -2.4410 H   0  0  0  0  0  0  0  0  0  0  0  0
  -22.3450  -24.3300   -1.3830 H   0  0  0  0  0  0  0  0  0  0  0  0
  -17.1820  -23.2450    2.9810 H   0  0  0  0  0  0  0  0  0  0  0  0
  -19.4290  -19.1060    1.5150 H   0  0  0  0  0  0  0  0  0  0  0  0
  -16.4580  -18.6620   -1.9870 H   0  0  0  0  0  0  0  0  0  0  0  0
  -14.7390  -18.8890   -1.8770 H   0  0  0  0  0  0  0  0  0  0  0  0
  -16.3780  -16.8920   -0.2730 H   0  0  0  0  0  0  0  0  0  0  0  0
  -15.2730  -16.5610   -1.5810 H   0  0  0  0  0  0  0  0  0  0  0  0
  -15.4490  -17.6940    1.8570 H   0  0  0  0  0  0  0  0  0  0  0  0
  -13.7150  -17.8490    1.9710 H   0  0  0  0  0  0  0  0  0  0  0  0
  -13.6500  -19.6370    0.3910 H   0  0  0  0  0  0  0  0  0  0  0  0
  -14.6640  -20.0520    1.7430 H   0  0  0  0  0  0  0  0  0  0  0  0
  -15.5840  -23.5850   -1.5300 H   0  0  0  0  0  0  0  0  0  0  0  0
  -16.4840  -23.1130   -2.9290 H   0  0  0  0  0  0  0  0  0  0  0  0
  -17.5870  -24.9360   -1.6700 H   0  0  0  0  0  0  0  0  0  0  0  0
  -17.6520  -23.9370   -0.2400 H   0  0  0  0  0  0  0  0  0  0  0  0
  1  3  1  0  0  0  0
  1 15  1  0  0  0  0
  1 29  1  0  0  0  0
  1 30  1  0  0  0  0
  2  8  2  0  0  0  0
  2 21  1  0  0  0  0
  2 31  1  0  0  0  0
  3  4  1  0  0  0  0
  3 28  1  0  0  0  0
  3 32  1  0  0  0  0
  4  6  1  0  0  0  0
  4 33  1  0  0  0  0
  4 34  1  0  0  0  0
  5 18  1  0  0  0  0
  5 19  2  0  0  0  0
  5 35  1  0  0  0  0
  6 10  1  0  0  0  0
  6 36  1  0  0  0  0
  6 37  1  0  0  0  0
  7 10  1  0  0  0  0
  7 16  2  0  0  0  0
  7 17  1  0  0  0  0
  8 19  1  0  0  0  0
  8 20  1  0  0  0  0
  9 13  1  0  0  0  0
  9 15  1  0  0  0  0
  9 38  1  0  0  0  0
 10 27  1  0  0  0  0
 11 17  1  0  0  0  0
 11 18  1  0  0  0  0
 11 39  1  0  0  0  0
 12 13  2  0  0  0  0
 13 14  1  0  0  0  0
 14 40  1  0  0  0  0
 14 41  1  0  0  0  0
 15 42  1  0  0  0  0
 15 43  1  0  0  0  0
 17 22  1  0  0  0  0
 17 26  1  0  0  0  0
 18 21  2  0  0  0  0
 19 44  1  0  0  0  0
 21 45  1  0  0  0  0
 22 23  1  0  0  0  0
 22 46  1  0  0  0  0
 22 47  1  0  0  0  0
 23 24  1  0  0  0  0
 23 48  1  0  0  0  0
 23 49  1  0  0  0  0
 24 25  1  0  0  0  0
 25 26  1  0  0  0  0
 25 50  1  0  0  0  0
 25 51  1  0  0  0  0
 26 52  1  0  0  0  0
 26 53  1  0  0  0  0
 27 28  1  0  0  0  0
 27 54  1  0  0  0  0
 27 55  1  0  0  0  0
 28 56  1  0  0  0  0
 28 57  1  0  0  0  0
M  END
>  <COMPND>
    title: molecule 1

$$$$
8AR4_ligand0.pdb
 OpenBabel06042612053D

 66 68  0  0  0  0  0  0  0  0999 V2000
   25.3510  -16.3010    1.2500 C   0  0  0  0  0  0  0  0  0  0  0  0
   26.6270  -17.0400    0.8560 C   0  0  0  0  0  0  0  0  0  0  0  0
   27.7830  -16.6890    1.7880 C   0  0  0  0  0  0  0  0  0  0  0  0
   26.3810  -18.5500    0.8110 C   0  0  0  0  0  0  0  0  0  0  0  0
   25.3060  -18.9810   -0.2080 C   0  0  0  0  0  0  0  0  0  0  0  0
   23.4750  -19.9420    1.3020 C   0  0  0  0  0  0  0  0  0  0  0  0
   21.5260  -20.7990    2.4450 C   0  0  0  0  0  0  0  0  0  0  0  0
   23.6370  -20.7190   -2.1240 C   0  0  0  0  0  0  0  0  0  0  0  0
   23.9940  -18.9500    0.4560 N   0  0  0  0  0  0  0  0  0  0  0  0
   24.2200  -21.0110    1.8350 C   0  0  0  0  0  0  0  0  0  0  0  0
   23.6140  -21.9580    2.6410 C   0  0  0  0  0  0  0  0  0  0  0  0
   22.2840  -21.8280    2.9620 C   0  0  0  0  0  0  0  0  0  0  0  0
   21.5410  -23.0260    3.9820 Cl  0  0  0  0  0  0  0  0  0  0  0  0
   22.1180  -19.8490    1.6380 C   0  0  0  0  0  0  0  0  0  0  0  0
   25.6910  -20.3880   -0.6860 C   0  0  0  0  0  0  0  0  0  0  0  0
   26.7650  -20.8580   -0.3030 O   0  0  0  0  0  0  0  0  0  0  0  0
   24.9110  -21.1250   -1.5000 N   0  0  0  0  0  0  0  0  0  0  0  0
   22.5110  -21.6310   -1.6780 C   0  0  0  0  0  0  0  0  0  0  0  0
   22.8360  -23.1000   -1.9460 C   0  0  0  0  0  0  0  0  0  0  0  0
   21.7740  -24.0250   -1.3720 C   0  0  0  0  0  0  0  0  0  0  0  0
   20.5370  -24.0900   -2.1630 N   0  0  0  0  0  0  0  0  0  0  0  0
   20.0830  -25.2190   -2.7090 C   0  0  0  0  0  0  0  0  0  0  0  0
   20.6950  -26.2870   -2.6160 O   0  0  0  0  0  0  0  0  0  0  0  0
   18.8150  -25.2610   -3.5380 C   0  0  0  0  0  0  0  0  0  0  0  0
   24.2180  -23.4770   -1.4170 C   0  0  0  0  0  0  0  0  0  0  0  0
   25.2790  -22.4960   -1.8750 C   0  0  0  0  0  0  0  0  0  0  0  0
   25.2930  -18.0330   -1.4300 C   0  0  0  0  0  0  0  0  0  0  0  0
   26.5870  -17.2450   -1.6680 C   0  0  0  0  0  0  0  0  0  0  0  0
   27.6860  -18.1840   -2.1650 C   0  0  0  0  0  0  0  0  0  0  0  0
   26.3170  -16.1450   -2.6890 C   0  0  0  0  0  0  0  0  0  0  0  0
   27.0490  -16.5980   -0.4600 O   0  0  0  0  0  0  0  0  0  0  0  0
   24.5400  -16.3680    0.5330 H   0  0  0  0  0  0  0  0  0  0  0  0
   24.9740  -16.6520    2.2100 H   0  0  0  0  0  0  0  0  0  0  0  0
   25.5550  -15.2360    1.3610 H   0  0  0  0  0  0  0  0  0  0  0  0
   28.7080  -17.1790    1.4850 H   0  0  0  0  0  0  0  0  0  0  0  0
   27.9730  -15.6150    1.7970 H   0  0  0  0  0  0  0  0  0  0  0  0
   27.5680  -16.9950    2.8110 H   0  0  0  0  0  0  0  0  0  0  0  0
   26.1230  -18.8980    1.8120 H   0  0  0  0  0  0  0  0  0  0  0  0
   27.3850  -18.9350    0.6480 H   0  0  0  0  0  0  0  0  0  0  0  0
   20.4780  -20.7210    2.6890 H   0  0  0  0  0  0  0  0  0  0  0  0
   23.7470  -20.7680   -3.2080 H   0  0  0  0  0  0  0  0  0  0  0  0
   23.3280  -19.7000   -1.9100 H   0  0  0  0  0  0  0  0  0  0  0  0
   23.3770  -18.1950    0.1920 H   0  0  0  0  0  0  0  0  0  0  0  0
   25.2800  -21.1180    1.6990 H   0  0  0  0  0  0  0  0  0  0  0  0
   24.1970  -22.7610    3.0550 H   0  0  0  0  0  0  0  0  0  0  0  0
   21.5170  -19.0400    1.2480 H   0  0  0  0  0  0  0  0  0  0  0  0
   21.5980  -21.3440   -2.1890 H   0  0  0  0  0  0  0  0  0  0  0  0
   22.3210  -21.4890   -0.6160 H   0  0  0  0  0  0  0  0  0  0  0  0
   22.8690  -23.2480   -3.0220 H   0  0  0  0  0  0  0  0  0  0  0  0
   21.5080  -23.6990   -0.3660 H   0  0  0  0  0  0  0  0  0  0  0  0
   22.2070  -25.0170   -1.2350 H   0  0  0  0  0  0  0  0  0  0  0  0
   20.0120  -23.2330   -2.2950 H   0  0  0  0  0  0  0  0  0  0  0  0
   18.2340  -26.1400   -3.2810 H   0  0  0  0  0  0  0  0  0  0  0  0
   18.2050  -24.3730   -3.3760 H   0  0  0  0  0  0  0  0  0  0  0  0
   24.4830  -24.4820   -1.7470 H   0  0  0  0  0  0  0  0  0  0  0  0
   24.1980  -23.4950   -0.3260 H   0  0  0  0  0  0  0  0  0  0  0  0
   26.2450  -22.8280   -1.4940 H   0  0  0  0  0  0  0  0  0  0  0  0
   25.3750  -22.5410   -2.9610 H   0  0  0  0  0  0  0  0  0  0  0  0
   24.4630  -17.3310   -1.3490 H   0  0  0  0  0  0  0  0  0  0  0  0
   25.0810  -18.5520   -2.3630 H   0  0  0  0  0  0  0  0  0  0  0  0
   28.5750  -17.6170   -2.4410 H   0  0  0  0  0  0  0  0  0  0  0  0
   28.0110  -18.9110   -1.4290 H   0  0  0  0  0  0  0  0  0  0  0  0
   27.3710  -18.7350   -3.0520 H   0  0  0  0  0  0  0  0  0  0  0  0
   27.2190  -15.5670   -2.8910 H   0  0  0  0  0  0  0  0  0  0  0  0
   25.9690  -16.5560   -3.6370 H   0  0  0  0  0  0  0  0  0  0  0  0
   25.5590  -15.4480   -2.3290 H   0  0  0  0  0  0  0  0  0  0  0  0
  1  2  1  0  0  0  0
  1 32  1  0  0  0  0
  1 33  1  0  0  0  0
  1 34  1  0  0  0  0
  2  3  1  0  0  0  0
  2  4  1  0  0  0  0
  2 31  1  0  0  0  0
  3 35  1  0  0  0  0
  3 36  1  0  0  0  0
  3 37  1  0  0  0  0
  4  5  1  0  0  0  0
  4 38  1  0  0  0  0
  4 39  1  0  0  0  0
  5  9  1  0  0  0  0
  5 15  1  0  0  0  0
  5 27  1  0  0  0  0
  6  9  1  0  0  0  0
  6 10  1  0  0  0  0
  6 14  2  0  0  0  0
  7 12  2  0  0  0  0
  7 14  1  0  0  0  0
  7 40  1  0  0  0  0
  8 17  1  0  0  0  0
  8 18  1  0  0  0  0
  8 41  1  0  0  0  0
  8 42  1  0  0  0  0
  9 43  1  0  0  0  0
 10 11  2  0  0  0  0
 10 44  1  0  0  0  0
 11 12  1  0  0  0  0
 11 45  1  0  0  0  0
 12 13  1  0  0  0  0
 14 46  1  0  0  0  0
 15 16  2  0  0  0  0
 15 17  1  0  0  0  0
 17 26  1  0  0  0  0
 18 19  1  0  0  0  0
 18 47  1  0  0  0  0
 18 48  1  0  0  0  0
 19 20  1  0  0  0  0
 19 25  1  0  0  0  0
 19 49  1  0  0  0  0
 20 21  1  0  0  0  0
 20 50  1  0  0  0  0
 20 51  1  0  0  0  0
 21 22  1  0  0  0  0
 21 52  1  0  0  0  0
 22 23  2  0  0  0  0
 22 24  1  0  0  0  0
 24 53  1  0  0  0  0
 24 54  1  0  0  0  0
 25 26  1  0  0  0  0
 25 55  1  0  0  0  0
 25 56  1  0  0  0  0
 26 57  1  0  0  0  0
 26 58  1  0  0  0  0
 27 28  1  0  0  0  0
 27 59  1  0  0  0  0
 27 60  1  0  0  0  0
 28 29  1  0  0  0  0
 28 30  1  0  0  0  0
 28 31  1  0  0  0  0
 29 61  1  0  0  0  0
 29 62  1  0  0  0  0
 29 63  1  0  0  0  0
 30 64  1  0  0  0  0
 30 65  1  0  0  0  0
 30 66  1  0  0  0  0
M  END
>  <COMPND>
    title: molecule 1

$$$$
8AR5_ligand0.pdb
 OpenBabel06042612053D

 55 58  0  0  0  0  0  0  0  0999 V2000
  -21.6080  -26.1130   -2.0020 O   0  0  0  0  0  0  0  0  0  0  0  0
  -21.1630  -25.3120   -2.8070 C   0  0  0  0  0  0  0  0  0  0  0  0
  -21.6590  -25.1500   -4.2030 C   0  0  0  0  0  0  0  0  0  0  0  0
  -20.2310  -24.4310   -2.5020 N   0  0  0  0  0  0  0  0  0  0  0  0
  -19.4200  -23.4900   -3.2900 C   0  0  0  0  0  0  0  0  0  0  0  0
  -18.7100  -23.1470   -1.9520 C   0  0  0  0  0  0  0  0  0  0  0  0
  -17.2980  -23.6840   -1.7270 C   0  0  0  0  0  0  0  0  0  0  0  0
  -16.2470  -22.7270   -2.1580 C   0  0  0  0  0  0  0  0  0  0  0  0
  -16.5280  -21.4160   -1.5670 N   0  0  0  0  0  0  0  0  0  0  0  0
  -15.5940  -20.9030   -0.7650 C   0  0  0  0  0  0  0  0  0  0  0  0
  -14.5570  -21.5440   -0.5810 O   0  0  0  0  0  0  0  0  0  0  0  0
  -15.7680  -19.5100   -0.1610 C   0  0  0  0  0  0  0  0  0  0  0  0
  -17.0400  -19.3460    0.5220 N   0  0  0  0  0  0  0  0  0  0  0  0
  -17.6030  -20.2670    1.3990 C   0  0  0  0  0  0  0  0  0  0  0  0
  -18.9270  -20.0400    1.8020 C   0  0  0  0  0  0  0  0  0  0  0  0
  -19.5610  -20.9330    2.6460 C   0  0  0  0  0  0  0  0  0  0  0  0
  -18.8910  -22.0750    3.0280 C   0  0  0  0  0  0  0  0  0  0  0  0
  -19.6900  -23.2090    4.0670 Cl  0  0  0  0  0  0  0  0  0  0  0  0
  -17.5980  -22.3350    2.6510 C   0  0  0  0  0  0  0  0  0  0  0  0
  -16.9590  -21.4340    1.8210 C   0  0  0  0  0  0  0  0  0  0  0  0
  -15.6570  -18.4800   -1.3000 C   0  0  0  0  0  0  0  0  0  0  0  0
  -15.5460  -17.0860   -0.7400 C   0  0  0  0  0  0  0  0  0  0  0  0
  -14.4410  -16.9680    0.1630 O   0  0  0  0  0  0  0  0  0  0  0  0
  -14.5930  -17.8540    1.2700 C   0  0  0  0  0  0  0  0  0  0  0  0
  -14.5920  -19.2850    0.8080 C   0  0  0  0  0  0  0  0  0  0  0  0
  -17.8170  -20.8430   -1.9900 C   0  0  0  0  0  0  0  0  0  0  0  0
  -18.9100  -21.7030   -1.4950 C   0  0  0  0  0  0  0  0  0  0  0  0
  -19.6980  -24.0520   -1.2020 C   0  0  0  0  0  0  0  0  0  0  0  0
  -22.4590  -24.4440   -4.0910 H   0  0  0  0  0  0  0  0  0  0  0  0
  -20.9290  -24.7940   -4.9300 H   0  0  0  0  0  0  0  0  0  0  0  0
  -20.0110  -22.6820   -3.7240 H   0  0  0  0  0  0  0  0  0  0  0  0
  -18.7790  -23.9800   -4.0240 H   0  0  0  0  0  0  0  0  0  0  0  0
  -17.1580  -24.6360   -2.2400 H   0  0  0  0  0  0  0  0  0  0  0  0
  -17.1460  -23.8890   -0.6660 H   0  0  0  0  0  0  0  0  0  0  0  0
  -16.2950  -22.6140   -3.2420 H   0  0  0  0  0  0  0  0  0  0  0  0
  -15.2720  -23.1840   -1.9820 H   0  0  0  0  0  0  0  0  0  0  0  0
  -17.6420  -18.6100    0.1770 H   0  0  0  0  0  0  0  0  0  0  0  0
  -19.4520  -19.1530    1.4790 H   0  0  0  0  0  0  0  0  0  0  0  0
  -20.5720  -20.7510    2.9730 H   0  0  0  0  0  0  0  0  0  0  0  0
  -17.0950  -23.2150    2.9910 H   0  0  0  0  0  0  0  0  0  0  0  0
  -15.9390  -21.6710    1.5880 H   0  0  0  0  0  0  0  0  0  0  0  0
  -16.4790  -18.5000   -2.0100 H   0  0  0  0  0  0  0  0  0  0  0  0
  -14.7610  -18.6800   -1.8920 H   0  0  0  0  0  0  0  0  0  0  0  0
  -16.4670  -16.7830   -0.2400 H   0  0  0  0  0  0  0  0  0  0  0  0
  -15.3950  -16.3770   -1.5540 H   0  0  0  0  0  0  0  0  0  0  0  0
  -15.4900  -17.6080    1.8390 H   0  0  0  0  0  0  0  0  0  0  0  0
  -13.7540  -17.6920    1.9470 H   0  0  0  0  0  0  0  0  0  0  0  0
  -13.6290  -19.4550    0.3250 H   0  0  0  0  0  0  0  0  0  0  0  0
  -14.6280  -19.9400    1.6780 H   0  0  0  0  0  0  0  0  0  0  0  0
  -17.8410  -20.8070   -3.0800 H   0  0  0  0  0  0  0  0  0  0  0  0
  -18.0210  -19.8320   -1.6750 H   0  0  0  0  0  0  0  0  0  0  0  0
  -18.9480  -21.6660   -0.4090 H   0  0  0  0  0  0  0  0  0  0  0  0
  -19.8730  -21.3240   -1.8310 H   0  0  0  0  0  0  0  0  0  0  0  0
  -19.2460  -24.8980   -0.6870 H   0  0  0  0  0  0  0  0  0  0  0  0
  -20.4410  -23.5430   -0.5880 H   0  0  0  0  0  0  0  0  0  0  0  0
  1  2  2  0  0  0  0
  2  3  1  0  0  0  0
  2  4  1  0  0  0  0
  3 29  1  0  0  0  0
  3 30  1  0  0  0  0
  4  5  1  0  0  0  0
  4 28  1  0  0  0  0
  5  6  1  0  0  0  0
  5 31  1  0  0  0  0
  5 32  1  0  0  0  0
  6  7  1  0  0  0  0
  6 27  1  0  0  0  0
  6 28  1  0  0  0  0
  7  8  1  0  0  0  0
  7 33  1  0  0  0  0
  7 34  1  0  0  0  0
  8  9  1  0  0  0  0
  8 35  1  0  0  0  0
  8 36  1  0  0  0  0
  9 10  1  0  0  0  0
  9 26  1  0  0  0  0
 10 11  2  0  0  0  0
 10 12  1  0  0  0  0
 12 13  1  0  0  0  0
 12 21  1  0  0  0  0
 12 25  1  0  0  0  0
 13 14  1  0  0  0  0
 13 37  1  0  0  0  0
 14 15  2  0  0  0  0
 14 20  1  0  0  0  0
 15 16  1  0  0  0  0
 15 38  1  0  0  0  0
 16 17  2  0  0  0  0
 16 39  1  0  0  0  0
 17 18  1  0  0  0  0
 17 19  1  0  0  0  0
 19 20  2  0  0  0  0
 19 40  1  0  0  0  0
 20 41  1  0  0  0  0
 21 22  1  0  0  0  0
 21 42  1  0  0  0  0
 21 43  1  0  0  0  0
 22 23  1  0  0  0  0
 22 44  1  0  0  0  0
 22 45  1  0  0  0  0
 23 24  1  0  0  0  0
 24 25  1  0  0  0  0
 24 46  1  0  0  0  0
 24 47  1  0  0  0  0
 25 48  1  0  0  0  0
 25 49  1  0  0  0  0
 26 27  1  0  0  0  0
 26 50  1  0  0  0  0
 26 51  1  0  0  0  0
 27 52  1  0  0  0  0
 27 53  1  0  0  0  0
 28 54  1  0  0  0  0
 28 55  1  0  0  0  0
M  END
>  <COMPND>
    title: molecule 1

$$$$
8ARG_ligand0.pdb
 OpenBabel06042612053D

 58 60  0  0  1  0  0  0  0  0999 V2000
  -19.2890  -24.3000   -1.3140 C   0  0  0  0  0  0  0  0  0  0  0  0
  -15.8930  -22.5050   -1.7910 C   0  0  0  0  0  0  0  0  0  0  0  0
  -15.7180  -20.5200   -0.3350 C   0  0  0  0  0  0  0  0  0  0  0  0
  -17.1250  -21.2640    2.1400 C   0  0  0  0  0  0  0  0  0  0  0  0
  -16.8600  -23.6140   -1.4350 C   0  0  0  0  0  0  0  0  0  0  0  0
  -18.2880  -23.3020   -1.8830 C   0  0  2  0  0  0  0  0  0  0  0  0
  -17.5080  -22.2820    3.0100 C   0  0  0  0  0  0  0  0  0  0  0  0
  -19.3920  -20.4460    2.1140 C   0  0  0  0  0  0  0  0  0  0  0  0
  -19.7600  -21.4860    2.9630 C   0  0  0  0  0  0  0  0  0  0  0  0
  -18.8370  -22.4220    3.3650 C   0  0  0  0  0  0  0  0  0  0  0  0
  -15.3340  -18.7110    1.3630 C   0  0  0  0  0  0  0  0  0  0  0  0
  -13.9870  -18.1740    0.8770 C   0  0  0  0  0  0  0  0  0  0  0  0
  -14.1940  -17.1030   -0.1750 C   0  0  1  0  0  0  0  0  0  0  0  0
  -16.2960  -19.2050    0.2700 C   0  0  2  0  0  0  0  0  0  0  0  0
  -18.0620  -20.3210    1.7400 C   0  0  0  0  0  0  0  0  0  0  0  0
  -12.8660  -16.6250   -0.6430 N   0  3  0  0  0  0  0  0  0  0  0  0
  -17.6670  -19.3010    0.8930 O   0  0  0  0  0  0  0  0  0  0  0  0
  -14.6170  -20.9550    0.0350 O   0  0  0  0  0  0  0  0  0  0  0  0
  -16.3900  -21.2290   -1.2540 N   0  0  0  0  0  0  0  0  0  0  0  0
  -20.5560  -24.4430   -2.0460 N   0  0  0  0  0  0  0  0  0  0  0  0
  -20.8040  -25.5330   -2.7610 C   0  0  0  0  0  0  0  0  0  0  0  0
  -19.9440  -26.4830   -2.8320 O   0  0  0  0  0  0  0  0  0  0  0  0
  -22.1250  -25.5870   -3.5080 C   0  0  0  0  0  0  0  0  0  0  0  0
  -18.6980  -21.9000   -1.4360 C   0  0  0  0  0  0  0  0  0  0  0  0
  -17.6810  -20.8690   -1.8510 C   0  0  0  0  0  0  0  0  0  0  0  0
  -16.3890  -18.1630   -0.8600 C   0  0  0  0  0  0  0  0  0  0  0  0
  -15.0310  -17.6350   -1.3300 C   0  0  0  0  0  0  0  0  0  0  0  0
  -19.5490  -24.0070   -0.2970 H   0  0  0  0  0  0  0  0  0  0  0  0
  -18.7920  -25.2570   -1.1730 H   0  0  0  0  0  0  0  0  0  0  0  0
  -15.8120  -22.4210   -2.8760 H   0  0  0  0  0  0  0  0  0  0  0  0
  -14.8940  -22.7820   -1.4510 H   0  0  0  0  0  0  0  0  0  0  0  0
  -16.0710  -21.2440    1.9690 H   0  0  0  0  0  0  0  0  0  0  0  0
  -16.8530  -23.7420   -0.3520 H   0  0  0  0  0  0  0  0  0  0  0  0
  -16.5200  -24.5530   -1.8710 H   0  0  0  0  0  0  0  0  0  0  0  0
  -18.2770  -23.4020   -2.9740 H   0  0  0  0  0  0  0  0  0  0  0  0
  -16.7640  -22.9460    3.3950 H   0  0  0  0  0  0  0  0  0  0  0  0
  -20.1250  -19.7270    1.7790 H   0  0  0  0  0  0  0  0  0  0  0  0
  -20.7900  -21.5810    3.2750 H   0  0  0  0  0  0  0  0  0  0  0  0
  -19.1380  -23.2230    4.0240 H   0  0  0  0  0  0  0  0  0  0  0  0
  -15.8300  -17.8890    1.8770 H   0  0  0  0  0  0  0  0  0  0  0  0
  -15.1430  -19.4380    2.1480 H   0  0  0  0  0  0  0  0  0  0  0  0
  -13.3380  -18.9600    0.4960 H   0  0  0  0  0  0  0  0  0  0  0  0
  -13.4530  -17.7510    1.7290 H   0  0  0  0  0  0  0  0  0  0  0  0
  -14.7100  -16.2530    0.2730 H   0  0  0  0  0  0  0  0  0  0  0  0
  -12.9910  -15.8990   -1.3330 H   0  0  0  0  0  0  0  0  0  0  0  0
  -12.3440  -16.2580    0.1390 H   0  0  0  0  0  0  0  0  0  0  0  0
  -12.3570  -17.3950   -1.0540 H   0  0  0  0  0  0  0  0  0  0  0  0
  -21.2130  -23.6720   -2.0720 H   0  0  0  0  0  0  0  0  0  0  0  0
  -22.6240  -26.5120   -3.2560 H   0  0  0  0  0  0  0  0  0  0  0  0
  -22.8190  -24.7730   -3.3210 H   0  0  0  0  0  0  0  0  0  0  0  0
  -19.2320  -21.7690   -0.4940 H   0  0  0  0  0  0  0  0  0  0  0  0
  -19.1920  -21.8160   -2.3800 H   0  0  0  0  0  0  0  0  0  0  0  0
  -17.5650  -20.7770   -2.9340 H   0  0  0  0  0  0  0  0  0  0  0  0
  -18.1250  -19.9560   -1.4930 H   0  0  0  0  0  0  0  0  0  0  0  0
  -16.9590  -17.3150   -0.4770 H   0  0  0  0  0  0  0  0  0  0  0  0
  -16.9070  -18.4410   -1.7680 H   0  0  0  0  0  0  0  0  0  0  0  0
  -14.4880  -18.4240   -1.8520 H   0  0  0  0  0  0  0  0  0  0  0  0
  -15.1890  -16.8430   -2.0640 H   0  0  0  0  0  0  0  0  0  0  0  0
  1  6  1  0  0  0  0
  1 20  1  0  0  0  0
  1 28  1  0  0  0  0
  1 29  1  0  0  0  0
  2  5  1  0  0  0  0
  2 19  1  0  0  0  0
  2 30  1  0  0  0  0
  2 31  1  0  0  0  0
  3 18  2  0  0  0  0
  3 19  1  0  0  0  0
  4  7  2  0  0  0  0
  4 15  1  0  0  0  0
  4 32  1  0  0  0  0
  5  6  1  0  0  0  0
  5 33  1  0  0  0  0
  5 34  1  0  0  0  0
  6 24  1  0  0  0  0
  6 35  1  6  0  0  0
  7 10  1  0  0  0  0
  7 36  1  0  0  0  0
  8  9  1  0  0  0  0
  8 15  2  0  0  0  0
  8 37  1  0  0  0  0
  9 10  2  0  0  0  0
  9 38  1  0  0  0  0
 10 39  1  0  0  0  0
 11 12  1  0  0  0  0
 11 14  1  0  0  0  0
 11 40  1  0  0  0  0
 11 41  1  0  0  0  0
 12 13  1  0  0  0  0
 12 42  1  0  0  0  0
 12 43  1  0  0  0  0
 13 16  1  0  0  0  0
 13 27  1  0  0  0  0
 13 44  1  1  0  0  0
 14  3  1  6  0  0  0
 14 17  1  0  0  0  0
 14 26  1  0  0  0  0
 15 17  1  0  0  0  0
 16 45  1  0  0  0  0
 16 46  1  0  0  0  0
 16 47  1  0  0  0  0
 19 25  1  0  0  0  0
 20 21  1  0  0  0  0
 20 48  1  0  0  0  0
 21 22  2  0  0  0  0
 21 23  1  0  0  0  0
 23 49  1  0  0  0  0
 23 50  1  0  0  0  0
 24 25  1  0  0  0  0
 24 51  1  0  0  0  0
 24 52  1  0  0  0  0
 25 53  1  0  0  0  0
 25 54  1  0  0  0  0
 26 27  1  0  0  0  0
 26 55  1  0  0  0  0
 26 56  1  0  0  0  0
 27 57  1  0  0  0  0
 27 58  1  0  0  0  0
M  CHG  1  16   1
M  END
>  <COMPND>
    title: molecule 1

$$$$
8ARO_ligand0.pdb
 OpenBabel06042612053D

 49 50  0  0  0  0  0  0  0  0999 V2000
  -15.7190  -18.0060   -1.0300 C   0  0  0  0  0  0  0  0  0  0  0  0
  -15.8040  -19.0590    0.0960 C   0  0  0  0  0  0  0  0  0  0  0  0
  -14.8420  -18.6510    1.2300 C   0  0  0  0  0  0  0  0  0  0  0  0
  -17.7280  -20.0930    1.4630 C   0  0  0  0  0  0  0  0  0  0  0  0
  -19.0760  -19.9960    1.7930 C   0  0  0  0  0  0  0  0  0  0  0  0
  -19.6880  -20.9560    2.5770 C   0  0  0  0  0  0  0  0  0  0  0  0
  -18.9640  -22.0480    2.9930 C   0  0  0  0  0  0  0  0  0  0  0  0
  -14.2730  -20.8530   -0.1330 O   0  0  0  0  0  0  0  0  0  0  0  0
  -20.1800  -26.3370   -2.6980 O   0  0  0  0  0  0  0  0  0  0  0  0
  -17.6320  -22.1790    2.6720 C   0  0  0  0  0  0  0  0  0  0  0  0
  -17.1540  -19.0800    0.6680 N   0  0  0  0  0  0  0  0  0  0  0  0
  -17.0160  -21.2100    1.8980 C   0  0  0  0  0  0  0  0  0  0  0  0
  -15.3590  -20.4220   -0.4760 C   0  0  0  0  0  0  0  0  0  0  0  0
  -15.7390  -22.4620   -1.7840 C   0  0  0  0  0  0  0  0  0  0  0  0
  -19.7210  -23.2660    3.9720 Cl  0  0  0  0  0  0  0  0  0  0  0  0
  -16.1410  -21.1290   -1.3260 N   0  0  0  0  0  0  0  0  0  0  0  0
  -16.7890  -23.4860   -1.3980 C   0  0  0  0  0  0  0  0  0  0  0  0
  -18.1780  -23.1270   -1.9290 C   0  0  0  0  0  0  0  0  0  0  0  0
  -19.2070  -24.0970   -1.3580 C   0  0  0  0  0  0  0  0  0  0  0  0
  -20.4820  -24.1860   -2.0780 N   0  0  0  0  0  0  0  0  0  0  0  0
  -20.8710  -25.3030   -2.6960 C   0  0  0  0  0  0  0  0  0  0  0  0
  -22.1610  -25.3480   -3.4790 C   0  0  0  0  0  0  0  0  0  0  0  0
  -18.5180  -21.6850   -1.5540 C   0  0  0  0  0  0  0  0  0  0  0  0
  -17.4140  -20.7160   -1.9340 C   0  0  0  0  0  0  0  0  0  0  0  0
  -16.3800  -18.1780   -1.8750 H   0  0  0  0  0  0  0  0  0  0  0  0
  -15.9590  -17.0140   -0.6450 H   0  0  0  0  0  0  0  0  0  0  0  0
  -14.7070  -17.9490   -1.4330 H   0  0  0  0  0  0  0  0  0  0  0  0
  -14.8110  -19.3780    2.0420 H   0  0  0  0  0  0  0  0  0  0  0  0
  -13.8210  -18.5160    0.8710 H   0  0  0  0  0  0  0  0  0  0  0  0
  -15.1430  -17.7010    1.6720 H   0  0  0  0  0  0  0  0  0  0  0  0
  -19.6530  -19.1460    1.4580 H   0  0  0  0  0  0  0  0  0  0  0  0
  -20.7290  -20.8650    2.8310 H   0  0  0  0  0  0  0  0  0  0  0  0
  -17.0660  -23.0210    3.0290 H   0  0  0  0  0  0  0  0  0  0  0  0
  -17.6790  -18.2200    0.5870 H   0  0  0  0  0  0  0  0  0  0  0  0
  -15.9630  -21.3440    1.7420 H   0  0  0  0  0  0  0  0  0  0  0  0
  -14.7730  -22.7960   -1.4030 H   0  0  0  0  0  0  0  0  0  0  0  0
  -15.6270  -22.4390   -2.8690 H   0  0  0  0  0  0  0  0  0  0  0  0
  -16.8240  -23.5560   -0.3100 H   0  0  0  0  0  0  0  0  0  0  0  0
  -16.4890  -24.4670   -1.7680 H   0  0  0  0  0  0  0  0  0  0  0  0
  -18.1540  -23.2180   -3.0120 H   0  0  0  0  0  0  0  0  0  0  0  0
  -19.4420  -23.8140   -0.3310 H   0  0  0  0  0  0  0  0  0  0  0  0
  -18.7460  -25.0790   -1.2540 H   0  0  0  0  0  0  0  0  0  0  0  0
  -21.0540  -23.3520   -2.1440 H   0  0  0  0  0  0  0  0  0  0  0  0
  -22.7530  -26.2070   -3.1960 H   0  0  0  0  0  0  0  0  0  0  0  0
  -22.7510  -24.4430   -3.3440 H   0  0  0  0  0  0  0  0  0  0  0  0
  -18.7160  -21.6200   -0.4870 H   0  0  0  0  0  0  0  0  0  0  0  0
  -19.4360  -21.3790   -2.0450 H   0  0  0  0  0  0  0  0  0  0  0  0
  -17.2930  -20.7020   -3.0180 H   0  0  0  0  0  0  0  0  0  0  0  0
  -17.7560  -19.7220   -1.6720 H   0  0  0  0  0  0  0  0  0  0  0  0
  1  2  1  0  0  0  0
  1 25  1  0  0  0  0
  1 26  1  0  0  0  0
  1 27  1  0  0  0  0
  2  3  1  0  0  0  0
  2 11  1  0  0  0  0
  2 13  1  0  0  0  0
  3 28  1  0  0  0  0
  3 29  1  0  0  0  0
  3 30  1  0  0  0  0
  4  5  2  0  0  0  0
  4 11  1  0  0  0  0
  4 12  1  0  0  0  0
  5  6  1  0  0  0  0
  5 31  1  0  0  0  0
  6  7  2  0  0  0  0
  6 32  1  0  0  0  0
  7 10  1  0  0  0  0
  7 15  1  0  0  0  0
  8 13  2  0  0  0  0
  9 21  2  0  0  0  0
 10 12  2  0  0  0  0
 10 33  1  0  0  0  0
 11 34  1  0  0  0  0
 12 35  1  0  0  0  0
 13 16  1  0  0  0  0
 14 16  1  0  0  0  0
 14 17  1  0  0  0  0
 14 36  1  0  0  0  0
 14 37  1  0  0  0  0
 16 24  1  0  0  0  0
 17 18  1  0  0  0  0
 17 38  1  0  0  0  0
 17 39  1  0  0  0  0
 18 19  1  0  0  0  0
 18 23  1  0  0  0  0
 18 40  1  0  0  0  0
 19 20  1  0  0  0  0
 19 41  1  0  0  0  0
 19 42  1  0  0  0  0
 20 21  1  0  0  0  0
 20 43  1  0  0  0  0
 21 22  1  0  0  0  0
 22 44  1  0  0  0  0
 22 45  1  0  0  0  0
 23 24  1  0  0  0  0
 23 46  1  0  0  0  0
 23 47  1  0  0  0  0
 24 48  1  0  0  0  0
 24 49  1  0  0  0  0
M  END
>  <COMPND>
    title: molecule 1

$$$$
8ARQ_ligand0.pdb
 OpenBabel06042612053D

 55 58  0  0  0  0  0  0  0  0999 V2000
   21.4010   25.4720   -1.9170 O   0  0  0  0  0  0  0  0  0  0  0  0
   21.1230   24.7150   -2.8360 C   0  0  0  0  0  0  0  0  0  0  0  0
   21.5320   24.9810   -4.2750 C   0  0  0  0  0  0  0  0  0  0  0  0
   20.4410   23.5790   -2.6120 N   0  0  0  0  0  0  0  0  0  0  0  0
   20.0640   23.1600   -1.2580 C   0  0  0  0  0  0  0  0  0  0  0  0
   18.5990   23.3150   -1.1340 C   0  0  0  0  0  0  0  0  0  0  0  0
   17.9070   22.4820   -2.2090 C   0  0  0  0  0  0  0  0  0  0  0  0
   18.4040   22.8050   -3.6160 C   0  0  0  0  0  0  0  0  0  0  0  0
   19.8910   22.6970   -3.6460 C   0  0  0  0  0  0  0  0  0  0  0  0
   17.8060   20.9690   -1.8930 C   0  0  0  0  0  0  0  0  0  0  0  0
   16.4330   21.2790   -1.4610 N   0  0  0  0  0  0  0  0  0  0  0  0
   15.4720   20.6830   -0.7720 C   0  0  0  0  0  0  0  0  0  0  0  0
   14.4020   21.2830   -0.6610 O   0  0  0  0  0  0  0  0  0  0  0  0
   15.6440   19.2830   -0.1660 C   0  0  0  0  0  0  0  0  0  0  0  0
   16.9500   19.1410    0.5010 N   0  0  0  0  0  0  0  0  0  0  0  0
   17.5040   20.1030    1.3390 C   0  0  0  0  0  0  0  0  0  0  0  0
   16.8050   21.2190    1.8460 C   0  0  0  0  0  0  0  0  0  0  0  0
   17.4590   22.1330    2.6570 C   0  0  0  0  0  0  0  0  0  0  0  0
   18.7920   21.9270    2.9560 C   0  0  0  0  0  0  0  0  0  0  0  0
   19.6140   23.0890    3.9580 Cl  0  0  0  0  0  0  0  0  0  0  0  0
   19.4960   20.8370    2.4860 C   0  0  0  0  0  0  0  0  0  0  0  0
   18.8530   19.9230    1.6720 C   0  0  0  0  0  0  0  0  0  0  0  0
   14.4840   19.0190    0.8230 C   0  0  0  0  0  0  0  0  0  0  0  0
   14.5160   17.5790    1.2680 C   0  0  0  0  0  0  0  0  0  0  0  0
   14.4380   16.6940    0.1470 O   0  0  0  0  0  0  0  0  0  0  0  0
   15.5280   16.8630   -0.7610 C   0  0  0  0  0  0  0  0  0  0  0  0
   15.5470   18.2630   -1.3210 C   0  0  0  0  0  0  0  0  0  0  0  0
   16.3790   22.6020   -2.0880 C   0  0  0  0  0  0  0  0  0  0  0  0
   22.1210   24.1510   -4.6180 H   0  0  0  0  0  0  0  0  0  0  0  0
   20.6450   25.0210   -4.9080 H   0  0  0  0  0  0  0  0  0  0  0  0
   20.5600   23.7280   -0.4700 H   0  0  0  0  0  0  0  0  0  0  0  0
   20.3620   22.1230   -1.1010 H   0  0  0  0  0  0  0  0  0  0  0  0
   18.3280   24.3680   -1.2270 H   0  0  0  0  0  0  0  0  0  0  0  0
   18.2840   23.0100   -0.1350 H   0  0  0  0  0  0  0  0  0  0  0  0
   18.1000   23.8110   -3.9080 H   0  0  0  0  0  0  0  0  0  0  0  0
   17.9680   22.1280   -4.3520 H   0  0  0  0  0  0  0  0  0  0  0  0
   20.1530   21.6730   -3.4070 H   0  0  0  0  0  0  0  0  0  0  0  0
   20.2620   22.8570   -4.6560 H   0  0  0  0  0  0  0  0  0  0  0  0
   18.4890   20.6370   -1.1150 H   0  0  0  0  0  0  0  0  0  0  0  0
   17.8220   20.3130   -2.7640 H   0  0  0  0  0  0  0  0  0  0  0  0
   17.5440   18.3870    0.1900 H   0  0  0  0  0  0  0  0  0  0  0  0
   15.7630   21.4040    1.6590 H   0  0  0  0  0  0  0  0  0  0  0  0
   16.9330   22.9790    3.0510 H   0  0  0  0  0  0  0  0  0  0  0  0
   20.5380   20.7040    2.7380 H   0  0  0  0  0  0  0  0  0  0  0  0
   19.4020   19.0720    1.2940 H   0  0  0  0  0  0  0  0  0  0  0  0
   13.5160   19.1830    0.3490 H   0  0  0  0  0  0  0  0  0  0  0  0
   14.5130   19.6660    1.6980 H   0  0  0  0  0  0  0  0  0  0  0  0
   13.6670   17.3790    1.9220 H   0  0  0  0  0  0  0  0  0  0  0  0
   15.4100   17.3610    1.8540 H   0  0  0  0  0  0  0  0  0  0  0  0
   15.4100   16.1450   -1.5730 H   0  0  0  0  0  0  0  0  0  0  0  0
   16.4670   16.6120   -0.2660 H   0  0  0  0  0  0  0  0  0  0  0  0
   16.3820   18.3700   -2.0150 H   0  0  0  0  0  0  0  0  0  0  0  0
   14.6370   18.4260   -1.9020 H   0  0  0  0  0  0  0  0  0  0  0  0
   15.8330   22.5820   -3.0320 H   0  0  0  0  0  0  0  0  0  0  0  0
   16.0330   23.3960   -1.4240 H   0  0  0  0  0  0  0  0  0  0  0  0
  1  2  2  0  0  0  0
  2  3  1  0  0  0  0
  2  4  1  0  0  0  0
  3 29  1  0  0  0  0
  3 30  1  0  0  0  0
  4  5  1  0  0  0  0
  4  9  1  0  0  0  0
  5  6  1  0  0  0  0
  5 31  1  0  0  0  0
  5 32  1  0  0  0  0
  6  7  1  0  0  0  0
  6 33  1  0  0  0  0
  6 34  1  0  0  0  0
  7  8  1  0  0  0  0
  7 10  1  0  0  0  0
  7 28  1  0  0  0  0
  8  9  1  0  0  0  0
  8 35  1  0  0  0  0
  8 36  1  0  0  0  0
  9 37  1  0  0  0  0
  9 38  1  0  0  0  0
 10 11  1  0  0  0  0
 10 39  1  0  0  0  0
 10 40  1  0  0  0  0
 11 12  1  0  0  0  0
 11 28  1  0  0  0  0
 12 13  2  0  0  0  0
 12 14  1  0  0  0  0
 14 15  1  0  0  0  0
 14 23  1  0  0  0  0
 14 27  1  0  0  0  0
 15 16  1  0  0  0  0
 15 41  1  0  0  0  0
 16 17  2  0  0  0  0
 16 22  1  0  0  0  0
 17 18  1  0  0  0  0
 17 42  1  0  0  0  0
 18 19  2  0  0  0  0
 18 43  1  0  0  0  0
 19 20  1  0  0  0  0
 19 21  1  0  0  0  0
 21 22  2  0  0  0  0
 21 44  1  0  0  0  0
 22 45  1  0  0  0  0
 23 24  1  0  0  0  0
 23 46  1  0  0  0  0
 23 47  1  0  0  0  0
 24 25  1  0  0  0  0
 24 48  1  0  0  0  0
 24 49  1  0  0  0  0
 25 26  1  0  0  0  0
 26 27  1  0  0  0  0
 26 50  1  0  0  0  0
 26 51  1  0  0  0  0
 27 52  1  0  0  0  0
 27 53  1  0  0  0  0
 28 54  1  0  0  0  0
 28 55  1  0  0  0  0
M  END
>  <COMPND>
    title: molecule 1

$$$$
8ARR_ligand0.pdb
 OpenBabel06042612053D

 59 61  0  0  1  0  0  0  0  0999 V2000
   13.9750   16.6600   -0.2210 C   0  0  1  0  0  0  0  0  0  0  0  0
   14.6590   17.2270   -1.4490 C   0  0  0  0  0  0  0  0  0  0  0  0
   16.0130   17.8340   -1.0820 C   0  0  0  0  0  0  0  0  0  0  0  0
   15.9130   18.9200    0.0170 C   0  0  1  0  0  0  0  0  0  0  0  0
   17.6920   20.1160    1.3810 C   0  0  0  0  0  0  0  0  0  0  0  0
   16.8720   21.1750    1.8180 C   0  0  0  0  0  0  0  0  0  0  0  0
   17.3790   22.1440    2.6650 C   0  0  0  0  0  0  0  0  0  0  0  0
   18.6950   22.0670    3.0700 C   0  0  0  0  0  0  0  0  0  0  0  0
   19.5180   21.0370    2.6630 C   0  0  0  0  0  0  0  0  0  0  0  0
   19.0140   20.0590    1.8380 C   0  0  0  0  0  0  0  0  0  0  0  0
   15.3560   20.2280   -0.5650 C   0  0  0  0  0  0  0  0  0  0  0  0
   15.4560   22.1900   -2.0550 C   0  0  0  0  0  0  0  0  0  0  0  0
   16.3050   23.3920   -1.7020 C   0  0  0  0  0  0  0  0  0  0  0  0
   17.7550   23.2110   -2.1430 C   0  0  1  0  0  0  0  0  0  0  0  0
   18.5760   24.3770   -1.6160 C   0  0  0  0  0  0  0  0  0  0  0  0
   20.7070   25.2550   -2.4050 C   0  0  0  0  0  0  0  0  0  0  0  0
   21.5770   25.9390   -3.4420 C   0  0  0  0  0  0  0  0  0  0  0  0
   18.3010   21.8710   -1.6590 C   0  0  0  0  0  0  0  0  0  0  0  0
   17.3770   20.7240   -2.0120 C   0  0  0  0  0  0  0  0  0  0  0  0
   15.0760   18.4100    1.2170 C   0  0  0  0  0  0  0  0  0  0  0  0
   13.7550   17.7460    0.8180 C   0  0  0  0  0  0  0  0  0  0  0  0
   12.6820   16.0540   -0.6070 N   0  3  0  0  0  0  0  0  0  0  0  0
   17.2790   19.1040    0.5230 N   0  0  0  0  0  0  0  0  0  0  0  0
   19.3380   23.2600    4.1570 Cl  0  0  0  0  0  0  0  0  0  0  0  0
   14.2480   20.6320   -0.2190 O   0  0  0  0  0  0  0  0  0  0  0  0
   16.0340   20.9740   -1.4630 N   0  0  0  0  0  0  0  0  0  0  0  0
   19.4220   24.9960   -2.6320 N   0  0  0  0  0  0  0  0  0  0  0  0
   21.2350   24.9520   -1.3450 O   0  0  0  0  0  0  0  0  0  0  0  0
   14.5930   15.8700    0.2080 H   0  0  0  0  0  0  0  0  0  0  0  0
   14.0280   17.9820   -1.9220 H   0  0  0  0  0  0  0  0  0  0  0  0
   14.8090   16.4420   -2.1910 H   0  0  0  0  0  0  0  0  0  0  0  0
   16.4730   18.1960   -1.9990 H   0  0  0  0  0  0  0  0  0  0  0  0
   16.6600   17.0240   -0.7390 H   0  0  0  0  0  0  0  0  0  0  0  0
   15.8260   21.2730    1.6040 H   0  0  0  0  0  0  0  0  0  0  0  0
   16.7410   22.9300    3.0230 H   0  0  0  0  0  0  0  0  0  0  0  0
   20.5430   20.9870    3.0000 H   0  0  0  0  0  0  0  0  0  0  0  0
   19.6600   19.2490    1.5300 H   0  0  0  0  0  0  0  0  0  0  0  0
   15.4190   22.0700   -3.1390 H   0  0  0  0  0  0  0  0  0  0  0  0
   14.4250   22.3950   -1.7650 H   0  0  0  0  0  0  0  0  0  0  0  0
   16.2720   23.5220   -0.6200 H   0  0  0  0  0  0  0  0  0  0  0  0
   15.8770   24.2930   -2.1450 H   0  0  0  0  0  0  0  0  0  0  0  0
   17.7530   23.2240   -3.2350 H   0  0  0  0  0  0  0  0  0  0  0  0
   19.1160   24.0690   -0.7200 H   0  0  0  0  0  0  0  0  0  0  0  0
   17.9190   25.1600   -1.2500 H   0  0  0  0  0  0  0  0  0  0  0  0
   21.4960   27.0130   -3.2700 H   0  0  0  0  0  0  0  0  0  0  0  0
   22.6040   25.6800   -3.1860 H   0  0  0  0  0  0  0  0  0  0  0  0
   18.6580   21.8580   -0.6290 H   0  0  0  0  0  0  0  0  0  0  0  0
   19.0880   21.8020   -2.3710 H   0  0  0  0  0  0  0  0  0  0  0  0
   17.8550   19.7930   -1.7360 H   0  0  0  0  0  0  0  0  0  0  0  0
   17.2830   20.6570   -3.0970 H   0  0  0  0  0  0  0  0  0  0  0  0
   14.8740   19.2040    1.9370 H   0  0  0  0  0  0  0  0  0  0  0  0
   15.6560   17.6670    1.7680 H   0  0  0  0  0  0  0  0  0  0  0  0
   13.2850   17.3260    1.7080 H   0  0  0  0  0  0  0  0  0  0  0  0
   13.0620   18.4900    0.4300 H   0  0  0  0  0  0  0  0  0  0  0  0
   12.2320   15.6690    0.2180 H   0  0  0  0  0  0  0  0  0  0  0  0
   12.0840   16.7600   -1.0130 H   0  0  0  0  0  0  0  0  0  0  0  0
   12.8380   15.3160   -1.2780 H   0  0  0  0  0  0  0  0  0  0  0  0
   17.9690   18.4210    0.2380 H   0  0  0  0  0  0  0  0  0  0  0  0
   19.0030   25.2690   -3.5100 H   0  0  0  0  0  0  0  0  0  0  0  0
  1  2  1  0  0  0  0
  1 21  1  0  0  0  0
  1 22  1  0  0  0  0
  1 29  1  1  0  0  0
  2  3  1  0  0  0  0
  2 30  1  0  0  0  0
  2 31  1  0  0  0  0
  3  4  1  0  0  0  0
  3 32  1  0  0  0  0
  3 33  1  0  0  0  0
  4 11  1  6  0  0  0
  4 20  1  0  0  0  0
  4 23  1  0  0  0  0
  5  6  2  0  0  0  0
  5 10  1  0  0  0  0
  5 23  1  0  0  0  0
  6  7  1  0  0  0  0
  6 34  1  0  0  0  0
  7  8  2  0  0  0  0
  7 35  1  0  0  0  0
  8  9  1  0  0  0  0
  8 24  1  0  0  0  0
  9 10  2  0  0  0  0
  9 36  1  0  0  0  0
 10 37  1  0  0  0  0
 11 25  2  0  0  0  0
 11 26  1  0  0  0  0
 12 13  1  0  0  0  0
 12 26  1  0  0  0  0
 12 38  1  0  0  0  0
 12 39  1  0  0  0  0
 13 14  1  0  0  0  0
 13 40  1  0  0  0  0
 13 41  1  0  0  0  0
 14 15  1  0  0  0  0
 14 18  1  0  0  0  0
 14 42  1  6  0  0  0
 15 27  1  0  0  0  0
 15 43  1  0  0  0  0
 15 44  1  0  0  0  0
 16 17  1  0  0  0  0
 16 27  1  0  0  0  0
 16 28  2  0  0  0  0
 17 45  1  0  0  0  0
 17 46  1  0  0  0  0
 18 19  1  0  0  0  0
 18 47  1  0  0  0  0
 18 48  1  0  0  0  0
 19 26  1  0  0  0  0
 19 49  1  0  0  0  0
 19 50  1  0  0  0  0
 20 21  1  0  0  0  0
 20 51  1  0  0  0  0
 20 52  1  0  0  0  0
 21 53  1  0  0  0  0
 21 54  1  0  0  0  0
 22 55  1  0  0  0  0
 22 56  1  0  0  0  0
 22 57  1  0  0  0  0
 23 58  1  0  0  0  0
 27 59  1  0  0  0  0
M  CHG  1  22   1
M  END
>  <COMPND>
    title: molecule 1

$$$$
8ARW_ligand0.pdb
 OpenBabel06042612053D

 58 60  0  0  1  0  0  0  0  0999 V2000
  -19.6980   26.3000    2.8150 O   0  0  0  0  0  0  0  0  0  0  0  0
  -14.5470   18.7750   -0.7810 C   0  0  0  0  0  0  0  0  0  0  0  0
  -15.6850   19.1460    0.1980 C   0  0  2  0  0  0  0  0  0  0  0  0
  -17.4060   20.0360   -1.3740 C   0  0  0  0  0  0  0  0  0  0  0  0
  -18.7660   19.9110   -1.5860 C   0  0  0  0  0  0  0  0  0  0  0  0
  -19.4330   20.8500   -2.3570 C   0  0  0  0  0  0  0  0  0  0  0  0
  -14.1410   17.3050   -0.8640 C   0  0  0  0  0  0  0  0  0  0  0  0
  -13.2540   15.4540    0.5160 N   0  3  0  0  0  0  0  0  0  0  0  0
  -13.9080   16.7810    0.5380 C   0  0  2  0  0  0  0  0  0  0  0  0
  -16.9140   19.0220   -0.5720 O   0  0  0  0  0  0  0  0  0  0  0  0
  -18.7270   21.9020   -2.8980 C   0  0  0  0  0  0  0  0  0  0  0  0
  -19.5780   23.0720   -3.8570 Cl  0  0  0  0  0  0  0  0  0  0  0  0
  -17.3680   22.0410   -2.7130 C   0  0  0  0  0  0  0  0  0  0  0  0
  -16.6940   21.0970   -1.9350 C   0  0  0  0  0  0  0  0  0  0  0  0
  -15.3610   20.5760    0.6980 C   0  0  0  0  0  0  0  0  0  0  0  0
  -14.3320   21.1180    0.2870 O   0  0  0  0  0  0  0  0  0  0  0  0
  -16.1200   21.2940    1.5600 N   0  0  0  0  0  0  0  0  0  0  0  0
  -17.3380   20.8920    2.2750 C   0  0  0  0  0  0  0  0  0  0  0  0
  -18.5070   21.7440    1.8230 C   0  0  0  0  0  0  0  0  0  0  0  0
  -18.2720   23.2560    1.9270 C   0  0  2  0  0  0  0  0  0  0  0  0
  -19.3810   24.0230    1.1930 C   0  0  0  0  0  0  0  0  0  0  0  0
  -20.6320   24.4110    1.8910 N   0  0  0  0  0  0  0  0  0  0  0  0
  -20.7020   25.5030    2.6580 C   0  0  0  0  0  0  0  0  0  0  0  0
  -21.9860   25.7810    3.3960 C   0  0  0  0  0  0  0  0  0  0  0  0
  -16.8940   23.6010    1.3580 C   0  0  0  0  0  0  0  0  0  0  0  0
  -15.8070   22.6930    1.8940 C   0  0  0  0  0  0  0  0  0  0  0  0
  -15.7890   18.1950    1.4100 C   0  0  0  0  0  0  0  0  0  0  0  0
  -15.2330   16.7730    1.2760 C   0  0  0  0  0  0  0  0  0  0  0  0
  -13.5710   19.1950   -0.5380 H   0  0  0  0  0  0  0  0  0  0  0  0
  -14.7630   19.1270   -1.7890 H   0  0  0  0  0  0  0  0  0  0  0  0
  -19.3130   19.0850   -1.1540 H   0  0  0  0  0  0  0  0  0  0  0  0
  -20.4960   20.7570   -2.5250 H   0  0  0  0  0  0  0  0  0  0  0  0
  -13.2390   17.2090   -1.4710 H   0  0  0  0  0  0  0  0  0  0  0  0
  -14.9180   16.7290   -1.3690 H   0  0  0  0  0  0  0  0  0  0  0  0
  -13.0920   15.1410    1.4620 H   0  0  0  0  0  0  0  0  0  0  0  0
  -13.8520   14.7930    0.0410 H   0  0  0  0  0  0  0  0  0  0  0  0
  -12.3720   15.5200    0.0280 H   0  0  0  0  0  0  0  0  0  0  0  0
  -13.2130   17.4420    1.0600 H   0  0  0  0  0  0  0  0  0  0  0  0
  -16.8310   22.8510   -3.1720 H   0  0  0  0  0  0  0  0  0  0  0  0
  -15.6280   21.1980   -1.8380 H   0  0  0  0  0  0  0  0  0  0  0  0
  -17.1660   20.9960    3.3480 H   0  0  0  0  0  0  0  0  0  0  0  0
  -17.6290   19.8640    2.1170 H   0  0  0  0  0  0  0  0  0  0  0  0
  -19.1150   21.5740    2.6940 H   0  0  0  0  0  0  0  0  0  0  0  0
  -18.9040   21.4110    0.8640 H   0  0  0  0  0  0  0  0  0  0  0  0
  -18.2670   23.5510    2.9780 H   0  0  0  0  0  0  0  0  0  0  0  0
  -19.6720   23.4790    0.2940 H   0  0  0  0  0  0  0  0  0  0  0  0
  -18.9460   24.9420    0.7990 H   0  0  0  0  0  0  0  0  0  0  0  0
  -21.4200   23.7780    1.8670 H   0  0  0  0  0  0  0  0  0  0  0  0
  -22.3330   26.7740    3.1180 H   0  0  0  0  0  0  0  0  0  0  0  0
  -22.7660   25.0650    3.1330 H   0  0  0  0  0  0  0  0  0  0  0  0
  -16.6540   24.6380    1.5960 H   0  0  0  0  0  0  0  0  0  0  0  0
  -16.9150   23.5240    0.2690 H   0  0  0  0  0  0  0  0  0  0  0  0
  -14.8430   23.0450    1.5260 H   0  0  0  0  0  0  0  0  0  0  0  0
  -15.7410   22.7970    2.9780 H   0  0  0  0  0  0  0  0  0  0  0  0
  -16.8290   18.0520    1.6920 H   0  0  0  0  0  0  0  0  0  0  0  0
  -15.2990   18.6360    2.2800 H   0  0  0  0  0  0  0  0  0  0  0  0
  -15.1230   16.3290    2.2660 H   0  0  0  0  0  0  0  0  0  0  0  0
  -15.9500   16.1500    0.7390 H   0  0  0  0  0  0  0  0  0  0  0  0
  1 23  2  0  0  0  0
  2  3  1  0  0  0  0
  2  7  1  0  0  0  0
  2 29  1  0  0  0  0
  2 30  1  0  0  0  0
  3 10  1  6  0  0  0
  3 15  1  0  0  0  0
  3 27  1  0  0  0  0
  4  5  2  0  0  0  0
  4 10  1  0  0  0  0
  4 14  1  0  0  0  0
  5  6  1  0  0  0  0
  5 31  1  0  0  0  0
  6 11  2  0  0  0  0
  6 32  1  0  0  0  0
  7  9  1  0  0  0  0
  7 33  1  0  0  0  0
  7 34  1  0  0  0  0
  8  9  1  0  0  0  0
  8 35  1  0  0  0  0
  8 36  1  0  0  0  0
  8 37  1  0  0  0  0
  9 28  1  0  0  0  0
  9 38  1  1  0  0  0
 11 12  1  0  0  0  0
 11 13  1  0  0  0  0
 13 14  2  0  0  0  0
 13 39  1  0  0  0  0
 14 40  1  0  0  0  0
 15 16  2  0  0  0  0
 15 17  1  0  0  0  0
 17 18  1  0  0  0  0
 17 26  1  0  0  0  0
 18 19  1  0  0  0  0
 18 41  1  0  0  0  0
 18 42  1  0  0  0  0
 19 20  1  0  0  0  0
 19 43  1  0  0  0  0
 19 44  1  0  0  0  0
 20 21  1  0  0  0  0
 20 25  1  0  0  0  0
 20 45  1  1  0  0  0
 21 22  1  0  0  0  0
 21 46  1  0  0  0  0
 21 47  1  0  0  0  0
 22 23  1  0  0  0  0
 22 48  1  0  0  0  0
 23 24  1  0  0  0  0
 24 49  1  0  0  0  0
 24 50  1  0  0  0  0
 25 26  1  0  0  0  0
 25 51  1  0  0  0  0
 25 52  1  0  0  0  0
 26 53  1  0  0  0  0
 26 54  1  0  0  0  0
 27 28  1  0  0  0  0
 27 55  1  0  0  0  0
 27 56  1  0  0  0  0
 28 57  1  0  0  0  0
 28 58  1  0  0  0  0
M  CHG  1   8   1
M  END
>  <COMPND>
    title: molecule 1

$$$$
8ARX_ligand0.pdb
 OpenBabel06042612053D

 46 48  0  0  0  0  0  0  0  0999 V2000
  -19.7110  -26.2290   -2.8450 O   0  0  0  0  0  0  0  0  0  0  0  0
  -20.6120  -25.3330   -2.7980 C   0  0  0  0  0  0  0  0  0  0  0  0
  -21.9020  -25.5420   -3.5550 C   0  0  0  0  0  0  0  0  0  0  0  0
  -20.4620  -24.1780   -2.1430 N   0  0  0  0  0  0  0  0  0  0  0  0
  -19.2820  -23.8610   -1.3210 C   0  0  0  0  0  0  0  0  0  0  0  0
  -18.0240  -23.3500   -2.0300 C   0  0  0  0  0  0  0  0  0  0  0  0
  -18.1360  -21.8740   -2.4230 C   0  0  0  0  0  0  0  0  0  0  0  0
  -16.8020  -21.2900   -2.8610 C   0  0  0  0  0  0  0  0  0  0  0  0
  -15.7560  -21.5270   -1.8550 N   0  0  0  0  0  0  0  0  0  0  0  0
  -15.1150  -20.4680   -1.3090 C   0  0  0  0  0  0  0  0  0  0  0  0
  -15.2370  -19.3250   -1.7720 O   0  0  0  0  0  0  0  0  0  0  0  0
  -14.2800  -20.6650   -0.0770 C   0  0  0  0  0  0  0  0  0  0  0  0
  -14.8470  -21.4420    0.9520 O   0  0  0  0  0  0  0  0  0  0  0  0
  -16.1260  -21.1750    1.4000 C   0  0  0  0  0  0  0  0  0  0  0  0
  -16.5520  -22.1820    2.2480 C   0  0  0  0  0  0  0  0  0  0  0  0
  -17.8060  -22.1270    2.8060 C   0  0  0  0  0  0  0  0  0  0  0  0
  -18.6220  -21.0660    2.4740 C   0  0  0  0  0  0  0  0  0  0  0  0
  -20.1930  -21.0040    3.1720 Cl  0  0  0  0  0  0  0  0  0  0  0  0
  -18.2230  -20.0470    1.6380 C   0  0  0  0  0  0  0  0  0  0  0  0
  -16.9570  -20.1040    1.0860 C   0  0  0  0  0  0  0  0  0  0  0  0
  -13.4200  -19.5140    0.3700 C   0  0  0  0  0  0  0  0  0  0  0  0
  -12.7600  -20.7540   -0.1570 C   0  0  0  0  0  0  0  0  0  0  0  0
  -15.5340  -22.9640   -1.6280 C   0  0  0  0  0  0  0  0  0  0  0  0
  -16.8130  -23.6180   -1.1340 C   0  0  0  0  0  0  0  0  0  0  0  0
  -22.3290  -26.4910   -3.2470 H   0  0  0  0  0  0  0  0  0  0  0  0
  -22.6280  -24.7570   -3.3390 H   0  0  0  0  0  0  0  0  0  0  0  0
  -21.1860  -23.4730   -2.2100 H   0  0  0  0  0  0  0  0  0  0  0  0
  -19.0320  -24.7630   -0.7630 H   0  0  0  0  0  0  0  0  0  0  0  0
  -19.5920  -23.1440   -0.5600 H   0  0  0  0  0  0  0  0  0  0  0  0
  -17.8740  -23.9280   -2.9430 H   0  0  0  0  0  0  0  0  0  0  0  0
  -18.5080  -21.2940   -1.5770 H   0  0  0  0  0  0  0  0  0  0  0  0
  -18.8600  -21.7550   -3.2200 H   0  0  0  0  0  0  0  0  0  0  0  0
  -16.9600  -20.2410   -3.1150 H   0  0  0  0  0  0  0  0  0  0  0  0
  -16.4900  -21.7640   -3.7930 H   0  0  0  0  0  0  0  0  0  0  0  0
  -15.9170  -23.0230    2.4260 H   0  0  0  0  0  0  0  0  0  0  0  0
  -18.1500  -22.9070    3.4690 H   0  0  0  0  0  0  0  0  0  0  0  0
  -18.8800  -19.2160    1.4230 H   0  0  0  0  0  0  0  0  0  0  0  0
  -16.6360  -19.2870    0.4600 H   0  0  0  0  0  0  0  0  0  0  0  0
  -13.3780  -19.3270    1.4410 H   0  0  0  0  0  0  0  0  0  0  0  0
  -13.3420  -18.6220   -0.2480 H   0  0  0  0  0  0  0  0  0  0  0  0
  -12.3030  -20.6970   -1.1430 H   0  0  0  0  0  0  0  0  0  0  0  0
  -12.2630  -21.4260    0.5330 H   0  0  0  0  0  0  0  0  0  0  0  0
  -14.7130  -23.1440   -0.9370 H   0  0  0  0  0  0  0  0  0  0  0  0
  -15.2270  -23.4210   -2.5700 H   0  0  0  0  0  0  0  0  0  0  0  0
  -16.6800  -24.6950   -1.1180 H   0  0  0  0  0  0  0  0  0  0  0  0
  -17.0250  -23.3050   -0.1150 H   0  0  0  0  0  0  0  0  0  0  0  0
  1  2  2  0  0  0  0
  2  3  1  0  0  0  0
  2  4  1  0  0  0  0
  3 25  1  0  0  0  0
  3 26  1  0  0  0  0
  4  5  1  0  0  0  0
  4 27  1  0  0  0  0
  5  6  1  0  0  0  0
  5 28  1  0  0  0  0
  5 29  1  0  0  0  0
  6  7  1  0  0  0  0
  6 24  1  0  0  0  0
  6 30  1  0  0  0  0
  7  8  1  0  0  0  0
  7 31  1  0  0  0  0
  7 32  1  0  0  0  0
  8  9  1  0  0  0  0
  8 33  1  0  0  0  0
  8 34  1  0  0  0  0
  9 10  1  0  0  0  0
  9 23  1  0  0  0  0
 10 11  2  0  0  0  0
 10 12  1  0  0  0  0
 12 13  1  0  0  0  0
 12 21  1  0  0  0  0
 12 22  1  0  0  0  0
 13 14  1  0  0  0  0
 14 15  2  0  0  0  0
 14 20  1  0  0  0  0
 15 16  1  0  0  0  0
 15 35  1  0  0  0  0
 16 17  2  0  0  0  0
 16 36  1  0  0  0  0
 17 18  1  0  0  0  0
 17 19  1  0  0  0  0
 19 20  2  0  0  0  0
 19 37  1  0  0  0  0
 20 38  1  0  0  0  0
 21 22  1  0  0  0  0
 21 39  1  0  0  0  0
 21 40  1  0  0  0  0
 22 41  1  0  0  0  0
 22 42  1  0  0  0  0
 23 24  1  0  0  0  0
 23 43  1  0  0  0  0
 23 44  1  0  0  0  0
 24 45  1  0  0  0  0
 24 46  1  0  0  0  0
M  END
>  <COMPND>
    title: molecule 1

$$$$
8ARY_ligand0.pdb
 OpenBabel06042612053D

 55 57  0  0  0  0  0  0  0  0999 V2000
  -20.8430  -25.1610   -2.8500 C   0  0  0  0  0  0  0  0  0  0  0  0
  -22.0900  -25.1440   -3.6940 C   0  0  0  0  0  0  0  0  0  0  0  0
  -19.3980  -23.8820   -1.3530 C   0  0  0  0  0  0  0  0  0  0  0  0
  -18.1990  -23.1730   -1.9640 C   0  0  0  0  0  0  0  0  0  0  0  0
  -17.0410  -23.2130   -0.9760 C   0  0  0  0  0  0  0  0  0  0  0  0
  -15.8270  -22.4410   -1.4520 C   0  0  0  0  0  0  0  0  0  0  0  0
  -20.1140  -26.1950   -2.7760 O   0  0  0  0  0  0  0  0  0  0  0  0
  -20.5350  -24.0180   -2.2420 N   0  0  0  0  0  0  0  0  0  0  0  0
  -16.2010  -21.0550   -1.7650 N   0  0  0  0  0  0  0  0  0  0  0  0
  -15.7490  -19.8860   -1.2490 C   0  0  0  0  0  0  0  0  0  0  0  0
  -16.1920  -18.8130   -1.6760 O   0  0  0  0  0  0  0  0  0  0  0  0
  -14.7200  -19.8440   -0.1250 C   0  0  0  0  0  0  0  0  0  0  0  0
  -15.0430  -20.7250    1.0000 O   0  0  0  0  0  0  0  0  0  0  0  0
  -16.3290  -20.8620    1.5050 C   0  0  0  0  0  0  0  0  0  0  0  0
  -16.4570  -21.9570    2.3330 C   0  0  0  0  0  0  0  0  0  0  0  0
  -17.6810  -22.2620    2.8810 C   0  0  0  0  0  0  0  0  0  0  0  0
  -18.7640  -21.4610    2.5760 C   0  0  0  0  0  0  0  0  0  0  0  0
  -20.2970  -21.9010    3.2160 Cl  0  0  0  0  0  0  0  0  0  0  0  0
  -18.6630  -20.3550    1.7560 C   0  0  0  0  0  0  0  0  0  0  0  0
  -17.4260  -20.0570    1.2080 C   0  0  0  0  0  0  0  0  0  0  0  0
  -13.3650  -20.1960   -0.7630 C   0  0  0  0  0  0  0  0  0  0  0  0
  -12.2410  -20.1850    0.2600 C   0  0  0  0  0  0  0  0  0  0  0  0
  -12.1850  -18.8510    0.9990 C   0  0  0  0  0  0  0  0  0  0  0  0
  -13.5320  -18.4480    1.5850 C   0  0  0  0  0  0  0  0  0  0  0  0
  -14.6300  -18.4630    0.5370 C   0  0  0  0  0  0  0  0  0  0  0  0
  -17.2200  -21.0450   -2.8320 C   0  0  0  0  0  0  0  0  0  0  0  0
  -18.4880  -21.7280   -2.3590 C   0  0  0  0  0  0  0  0  0  0  0  0
  -22.7770  -25.8890   -3.2950 H   0  0  0  0  0  0  0  0  0  0  0  0
  -22.5920  -24.1810   -3.6300 H   0  0  0  0  0  0  0  0  0  0  0  0
  -19.7430  -23.3180   -0.4850 H   0  0  0  0  0  0  0  0  0  0  0  0
  -19.0950  -24.8500   -0.9530 H   0  0  0  0  0  0  0  0  0  0  0  0
  -17.8950  -23.7200   -2.8570 H   0  0  0  0  0  0  0  0  0  0  0  0
  -16.7760  -24.2520   -0.8240 H   0  0  0  0  0  0  0  0  0  0  0  0
  -17.3780  -22.8350   -0.0150 H   0  0  0  0  0  0  0  0  0  0  0  0
  -15.4060  -22.9090   -2.3440 H   0  0  0  0  0  0  0  0  0  0  0  0
  -15.0520  -22.5080   -0.6920 H   0  0  0  0  0  0  0  0  0  0  0  0
  -21.1260  -23.2070   -2.3820 H   0  0  0  0  0  0  0  0  0  0  0  0
  -15.6210  -22.5980    2.5390 H   0  0  0  0  0  0  0  0  0  0  0  0
  -17.7930  -23.1170    3.5290 H   0  0  0  0  0  0  0  0  0  0  0  0
  -19.5260  -19.7450    1.5350 H   0  0  0  0  0  0  0  0  0  0  0  0
  -17.3800  -19.1800    0.5860 H   0  0  0  0  0  0  0  0  0  0  0  0
  -13.1270  -19.4830   -1.5540 H   0  0  0  0  0  0  0  0  0  0  0  0
  -13.3790  -21.1730   -1.2440 H   0  0  0  0  0  0  0  0  0  0  0  0
  -11.2880  -20.3920   -0.2270 H   0  0  0  0  0  0  0  0  0  0  0  0
  -12.4150  -21.0000    0.9490 H   0  0  0  0  0  0  0  0  0  0  0  0
  -11.8460  -18.0750    0.3110 H   0  0  0  0  0  0  0  0  0  0  0  0
  -11.4410  -18.9010    1.7940 H   0  0  0  0  0  0  0  0  0  0  0  0
  -13.4570  -17.4520    2.0230 H   0  0  0  0  0  0  0  0  0  0  0  0
  -13.7860  -19.1160    2.4080 H   0  0  0  0  0  0  0  0  0  0  0  0
  -15.5600  -18.1490    1.0030 H   0  0  0  0  0  0  0  0  0  0  0  0
  -14.4010  -17.7000   -0.2080 H   0  0  0  0  0  0  0  0  0  0  0  0
  -16.8210  -21.5700   -3.7010 H   0  0  0  0  0  0  0  0  0  0  0  0
  -17.4780  -20.0540   -3.2060 H   0  0  0  0  0  0  0  0  0  0  0  0
  -18.9090  -21.1800   -1.5170 H   0  0  0  0  0  0  0  0  0  0  0  0
  -19.2160  -21.7020   -3.1600 H   0  0  0  0  0  0  0  0  0  0  0  0
  1  2  1  0  0  0  0
  1  7  2  0  0  0  0
  1  8  1  0  0  0  0
  2 28  1  0  0  0  0
  2 29  1  0  0  0  0
  3  4  1  0  0  0  0
  3  8  1  0  0  0  0
  3 30  1  0  0  0  0
  3 31  1  0  0  0  0
  4  5  1  0  0  0  0
  4 27  1  0  0  0  0
  4 32  1  0  0  0  0
  5  6  1  0  0  0  0
  5 33  1  0  0  0  0
  5 34  1  0  0  0  0
  6  9  1  0  0  0  0
  6 35  1  0  0  0  0
  6 36  1  0  0  0  0
  8 37  1  0  0  0  0
  9 10  1  0  0  0  0
  9 26  1  0  0  0  0
 10 11  2  0  0  0  0
 10 12  1  0  0  0  0
 12 13  1  0  0  0  0
 12 21  1  0  0  0  0
 12 25  1  0  0  0  0
 13 14  1  0  0  0  0
 14 15  2  0  0  0  0
 14 20  1  0  0  0  0
 15 16  1  0  0  0  0
 15 38  1  0  0  0  0
 16 17  2  0  0  0  0
 16 39  1  0  0  0  0
 17 18  1  0  0  0  0
 17 19  1  0  0  0  0
 19 20  2  0  0  0  0
 19 40  1  0  0  0  0
 20 41  1  0  0  0  0
 21 22  1  0  0  0  0
 21 42  1  0  0  0  0
 21 43  1  0  0  0  0
 22 23  1  0  0  0  0
 22 44  1  0  0  0  0
 22 45  1  0  0  0  0
 23 24  1  0  0  0  0
 23 46  1  0  0  0  0
 23 47  1  0  0  0  0
 24 25  1  0  0  0  0
 24 48  1  0  0  0  0
 24 49  1  0  0  0  0
 25 50  1  0  0  0  0
 25 51  1  0  0  0  0
 26 27  1  0  0  0  0
 26 52  1  0  0  0  0
 26 53  1  0  0  0  0
 27 54  1  0  0  0  0
 27 55  1  0  0  0  0
M  END
>  <COMPND>
    title: molecule 1

$$$$
8ARZ_ligand0.pdb
 OpenBabel06042612053D

 47 49  0  0  0  0  0  0  0  0999 V2000
  -20.7030  -25.3470   -2.7540 C   0  0  0  0  0  0  0  0  0  0  0  0
  -22.0310  -25.4980   -3.4600 C   0  0  0  0  0  0  0  0  0  0  0  0
  -19.1880  -24.0270   -1.3430 C   0  0  0  0  0  0  0  0  0  0  0  0
  -18.1030  -23.1780   -2.0050 C   0  0  0  0  0  0  0  0  0  0  0  0
  -16.7560  -23.6300   -1.4420 C   0  0  0  0  0  0  0  0  0  0  0  0
  -15.6180  -22.6760   -1.7660 C   0  0  0  0  0  0  0  0  0  0  0  0
  -15.2430  -20.5460   -0.5360 C   0  0  0  0  0  0  0  0  0  0  0  0
  -19.5970  -21.1600    2.5260 C   0  0  0  0  0  0  0  0  0  0  0  0
  -17.4580  -22.2260    2.7690 C   0  0  0  0  0  0  0  0  0  0  0  0
  -16.8950  -21.2830    1.9250 C   0  0  0  0  0  0  0  0  0  0  0  0
  -14.8360  -18.3160    0.6450 C   0  0  0  0  0  0  0  0  0  0  0  0
  -15.3890  -17.9880   -0.7010 C   0  0  0  0  0  0  0  0  0  0  0  0
  -18.3530  -21.6800   -1.7910 C   0  0  0  0  0  0  0  0  0  0  0  0
  -19.8760  -26.2860   -2.8590 O   0  0  0  0  0  0  0  0  0  0  0  0
  -20.4400  -24.2300   -2.0700 N   0  0  0  0  0  0  0  0  0  0  0  0
  -15.9640  -21.2950   -1.3980 N   0  0  0  0  0  0  0  0  0  0  0  0
  -14.1140  -20.8850   -0.1790 O   0  0  0  0  0  0  0  0  0  0  0  0
  -15.8210  -19.2620   -0.0110 C   0  0  0  0  0  0  0  0  0  0  0  0
  -17.1690  -19.2770    0.5300 N   0  0  0  0  0  0  0  0  0  0  0  0
  -17.6790  -20.2570    1.3990 C   0  0  0  0  0  0  0  0  0  0  0  0
  -19.0360  -20.2210    1.6850 C   0  0  0  0  0  0  0  0  0  0  0  0
  -18.8040  -22.1490    3.0560 C   0  0  0  0  0  0  0  0  0  0  0  0
  -19.5140  -23.3200    4.1190 Cl  0  0  0  0  0  0  0  0  0  0  0  0
  -17.1450  -20.8290   -2.1360 C   0  0  0  0  0  0  0  0  0  0  0  0
  -22.4380  -26.4630   -3.1810 H   0  0  0  0  0  0  0  0  0  0  0  0
  -22.7890  -24.7570   -3.2270 H   0  0  0  0  0  0  0  0  0  0  0  0
  -19.4480  -23.5930   -0.3770 H   0  0  0  0  0  0  0  0  0  0  0  0
  -18.7740  -25.0010   -1.0760 H   0  0  0  0  0  0  0  0  0  0  0  0
  -18.0760  -23.3850   -3.0720 H   0  0  0  0  0  0  0  0  0  0  0  0
  -16.5130  -24.6330   -1.7950 H   0  0  0  0  0  0  0  0  0  0  0  0
  -16.8310  -23.6920   -0.3550 H   0  0  0  0  0  0  0  0  0  0  0  0
  -15.3980  -22.7110   -2.8340 H   0  0  0  0  0  0  0  0  0  0  0  0
  -14.7120  -23.0240   -1.2680 H   0  0  0  0  0  0  0  0  0  0  0  0
  -20.6500  -21.1150    2.7630 H   0  0  0  0  0  0  0  0  0  0  0  0
  -16.8430  -22.9880    3.2140 H   0  0  0  0  0  0  0  0  0  0  0  0
  -15.8310  -21.3400    1.7790 H   0  0  0  0  0  0  0  0  0  0  0  0
  -15.1950  -17.7460    1.4990 H   0  0  0  0  0  0  0  0  0  0  0  0
  -13.7770  -18.5650    0.6840 H   0  0  0  0  0  0  0  0  0  0  0  0
  -14.7100  -18.0680   -1.5480 H   0  0  0  0  0  0  0  0  0  0  0  0
  -16.1160  -17.1800   -0.7700 H   0  0  0  0  0  0  0  0  0  0  0  0
  -18.7780  -21.4310   -0.8210 H   0  0  0  0  0  0  0  0  0  0  0  0
  -18.9780  -21.3950   -2.6210 H   0  0  0  0  0  0  0  0  0  0  0  0
  -21.1240  -23.4840   -2.0910 H   0  0  0  0  0  0  0  0  0  0  0  0
  -17.7680  -18.4990    0.2910 H   0  0  0  0  0  0  0  0  0  0  0  0
  -19.6600  -19.4420    1.2710 H   0  0  0  0  0  0  0  0  0  0  0  0
  -17.3690  -19.7710   -2.0060 H   0  0  0  0  0  0  0  0  0  0  0  0
  -16.9240  -20.9290   -3.2000 H   0  0  0  0  0  0  0  0  0  0  0  0
  1  2  1  0  0  0  0
  1 14  2  0  0  0  0
  1 15  1  0  0  0  0
  2 25  1  0  0  0  0
  2 26  1  0  0  0  0
  3  4  1  0  0  0  0
  3 15  1  0  0  0  0
  3 27  1  0  0  0  0
  3 28  1  0  0  0  0
  4  5  1  0  0  0  0
  4 13  1  0  0  0  0
  4 29  1  0  0  0  0
  5  6  1  0  0  0  0
  5 30  1  0  0  0  0
  5 31  1  0  0  0  0
  6 16  1  0  0  0  0
  6 32  1  0  0  0  0
  6 33  1  0  0  0  0
  7 16  1  0  0  0  0
  7 17  2  0  0  0  0
  7 18  1  0  0  0  0
  8 21  2  0  0  0  0
  8 22  1  0  0  0  0
  8 34  1  0  0  0  0
  9 10  1  0  0  0  0
  9 22  2  0  0  0  0
  9 35  1  0  0  0  0
 10 20  2  0  0  0  0
 10 36  1  0  0  0  0
 11 12  1  0  0  0  0
 11 18  1  0  0  0  0
 11 37  1  0  0  0  0
 11 38  1  0  0  0  0
 12 18  1  0  0  0  0
 12 39  1  0  0  0  0
 12 40  1  0  0  0  0
 13 24  1  0  0  0  0
 13 41  1  0  0  0  0
 13 42  1  0  0  0  0
 15 43  1  0  0  0  0
 16 24  1  0  0  0  0
 18 19  1  0  0  0  0
 19 20  1  0  0  0  0
 19 44  1  0  0  0  0
 20 21  1  0  0  0  0
 21 45  1  0  0  0  0
 22 23  1  0  0  0  0
 24 46  1  0  0  0  0
 24 47  1  0  0  0  0
M  END
>  <COMPND>
    title: molecule 1

$$$$
8AS1_ligand0.pdb
 OpenBabel06042612053D

 56 58  0  0  0  0  0  0  0  0999 V2000
   21.6040   25.9320   -2.6410 C   0  0  0  0  0  0  0  0  0  0  0  0
   16.4490   22.9580   -2.0270 C   0  0  0  0  0  0  0  0  0  0  0  0
   17.2610   21.4890    2.1880 C   0  0  0  0  0  0  0  0  0  0  0  0
   19.0690   22.4380    3.4440 C   0  0  0  0  0  0  0  0  0  0  0  0
   15.1830   19.2300    0.9550 C   0  0  0  0  0  0  0  0  0  0  0  0
   18.3090   21.5570   -1.4620 C   0  0  0  0  0  0  0  0  0  0  0  0
   19.1100   22.6860   -0.8440 C   0  0  0  0  0  0  0  0  0  0  0  0
   19.4620   20.4910    2.1000 C   0  0  0  0  0  0  0  0  0  0  0  0
   16.3900   18.7460   -1.2320 C   0  0  0  0  0  0  0  0  0  0  0  0
   16.1700   17.2900   -0.9090 C   0  0  0  0  0  0  0  0  0  0  0  0
   15.1380   17.7480    1.2130 C   0  0  0  0  0  0  0  0  0  0  0  0
   18.1190   20.4840    1.6980 C   0  0  0  0  0  0  0  0  0  0  0  0
   16.3700   19.6290    0.0420 C   0  0  0  0  0  0  0  0  0  0  0  0
   17.2360   24.2230   -1.7020 C   0  0  0  0  0  0  0  0  0  0  0  0
   18.7380   24.0410   -1.4390 C   0  0  0  0  0  0  0  0  0  0  0  0
   19.6290   24.4240   -2.6170 C   0  0  0  0  0  0  0  0  0  0  0  0
   20.9960   26.7540   -3.7590 C   0  0  0  0  0  0  0  0  0  0  0  0
   22.7270   26.3120   -2.2010 O   0  0  0  0  0  0  0  0  0  0  0  0
   20.9580   24.8610   -2.1680 N   0  0  0  0  0  0  0  0  0  0  0  0
   16.8760   21.7840   -1.2420 N   0  0  0  0  0  0  0  0  0  0  0  0
   16.0510   21.0590   -0.4480 C   0  0  0  0  0  0  0  0  0  0  0  0
   14.9500   21.5280   -0.1590 O   0  0  0  0  0  0  0  0  0  0  0  0
   17.6400   19.5190    0.8030 N   0  0  0  0  0  0  0  0  0  0  0  0
   17.7500   22.4370    3.0660 C   0  0  0  0  0  0  0  0  0  0  0  0
   19.9210   21.4580    2.9790 C   0  0  0  0  0  0  0  0  0  0  0  0
   14.9800   17.0790   -0.0800 N   0  3  0  0  0  0  0  0  0  0  0  0
   16.5850   22.7200   -3.0830 H   0  0  0  0  0  0  0  0  0  0  0  0
   15.3830   23.1660   -1.9230 H   0  0  0  0  0  0  0  0  0  0  0  0
   16.2060   21.5480    2.0020 H   0  0  0  0  0  0  0  0  0  0  0  0
   19.4340   23.1930    4.1250 H   0  0  0  0  0  0  0  0  0  0  0  0
   15.1990   19.7320    1.9200 H   0  0  0  0  0  0  0  0  0  0  0  0
   14.2070   19.4470    0.5130 H   0  0  0  0  0  0  0  0  0  0  0  0
   18.6670   20.6060   -1.0990 H   0  0  0  0  0  0  0  0  0  0  0  0
   18.4940   21.5150   -2.5360 H   0  0  0  0  0  0  0  0  0  0  0  0
   20.1790   22.6160   -0.7260 H   0  0  0  0  0  0  0  0  0  0  0  0
   18.7970   22.7310    0.1980 H   0  0  0  0  0  0  0  0  0  0  0  0
   20.1410   19.7310    1.7420 H   0  0  0  0  0  0  0  0  0  0  0  0
   15.6000   19.0510   -1.9230 H   0  0  0  0  0  0  0  0  0  0  0  0
   17.3240   18.8610   -1.7820 H   0  0  0  0  0  0  0  0  0  0  0  0
   17.0440   16.8800   -0.4000 H   0  0  0  0  0  0  0  0  0  0  0  0
   16.0590   16.7210   -1.8320 H   0  0  0  0  0  0  0  0  0  0  0  0
   14.2830   17.5030    1.8440 H   0  0  0  0  0  0  0  0  0  0  0  0
   16.0220   17.4160    1.7410 H   0  0  0  0  0  0  0  0  0  0  0  0
   16.8650   24.5230   -0.7420 H   0  0  0  0  0  0  0  0  0  0  0  0
   17.0070   25.0380   -2.3900 H   0  0  0  0  0  0  0  0  0  0  0  0
   18.9730   24.7800   -0.6730 H   0  0  0  0  0  0  0  0  0  0  0  0
   19.0870   25.1830   -3.1660 H   0  0  0  0  0  0  0  0  0  0  0  0
   19.6870   23.5990   -3.3220 H   0  0  0  0  0  0  0  0  0  0  0  0
   19.9190   26.8940   -3.7640 H   0  0  0  0  0  0  0  0  0  0  0  0
   21.4330   27.7520   -3.7710 H   0  0  0  0  0  0  0  0  0  0  0  0
   21.3720   24.3650   -1.3910 H   0  0  0  0  0  0  0  0  0  0  0  0
   18.3400   18.9030    0.4060 H   0  0  0  0  0  0  0  0  0  0  0  0
   17.0830   23.1650    3.4790 H   0  0  0  0  0  0  0  0  0  0  0  0
   20.9550   21.4530    3.2880 H   0  0  0  0  0  0  0  0  0  0  0  0
   14.8610   16.0880    0.0750 H   0  0  0  0  0  0  0  0  0  0  0  0
   14.1650   17.4420   -0.5540 H   0  0  0  0  0  0  0  0  0  0  0  0
  1 17  1  0  0  0  0
  1 18  2  0  0  0  0
  1 19  1  0  0  0  0
  2 14  1  0  0  0  0
  2 20  1  0  0  0  0
  2 27  1  0  0  0  0
  2 28  1  0  0  0  0
  3 12  2  0  0  0  0
  3 24  1  0  0  0  0
  3 29  1  0  0  0  0
  4 24  2  0  0  0  0
  4 25  1  0  0  0  0
  4 30  1  0  0  0  0
  5 11  1  0  0  0  0
  5 13  1  0  0  0  0
  5 31  1  0  0  0  0
  5 32  1  0  0  0  0
  6  7  1  0  0  0  0
  6 20  1  0  0  0  0
  6 33  1  0  0  0  0
  6 34  1  0  0  0  0
  7 15  1  0  0  0  0
  7 35  1  0  0  0  0
  7 36  1  0  0  0  0
  8 12  1  0  0  0  0
  8 25  2  0  0  0  0
  8 37  1  0  0  0  0
  9 10  1  0  0  0  0
  9 13  1  0  0  0  0
  9 38  1  0  0  0  0
  9 39  1  0  0  0  0
 10 26  1  0  0  0  0
 10 40  1  0  0  0  0
 10 41  1  0  0  0  0
 11 26  1  0  0  0  0
 11 42  1  0  0  0  0
 11 43  1  0  0  0  0
 12 23  1  0  0  0  0
 13 21  1  0  0  0  0
 13 23  1  0  0  0  0
 14 15  1  0  0  0  0
 14 44  1  0  0  0  0
 14 45  1  0  0  0  0
 15 16  1  0  0  0  0
 15 46  1  0  0  0  0
 16 19  1  0  0  0  0
 16 47  1  0  0  0  0
 16 48  1  0  0  0  0
 17 49  1  0  0  0  0
 17 50  1  0  0  0  0
 19 51  1  0  0  0  0
 20 21  1  0  0  0  0
 21 22  2  0  0  0  0
 23 52  1  0  0  0  0
 24 53  1  0  0  0  0
 25 54  1  0  0  0  0
 26 55  1  0  0  0  0
 26 56  1  0  0  0  0
M  CHG  1  26   1
M  END
>  <COMPND>
    title: molecule 1

$$$$
8AT9_ligand0.pdb
 OpenBabel06042612053D

 50 52  0  0  0  0  0  0  0  0999 V2000
   17.7390  -26.3940   -1.9530 O   0  0  0  0  0  0  0  0  0  0  0  0
   18.8170  -26.4410   -2.6740 C   0  0  0  0  0  0  0  0  0  0  0  0
   19.1250  -27.6180   -3.6060 C   0  0  0  0  0  0  0  0  0  0  0  0
   19.7560  -25.4940   -2.7080 N   0  0  0  0  0  0  0  0  0  0  0  0
   19.6420  -24.1980   -2.0600 C   0  0  0  0  0  0  0  0  0  0  0  0
   20.8810  -23.3390   -2.2620 C   0  0  0  0  0  0  0  0  0  0  0  0
   20.7990  -21.9390   -1.6450 C   0  0  0  0  0  0  0  0  0  0  0  0
   22.0690  -21.1200   -1.8590 C   0  0  0  0  0  0  0  0  0  0  0  0
   23.2830  -21.7810   -1.3580 N   0  0  0  0  0  0  0  0  0  0  0  0
   24.2750  -21.2140   -0.6090 C   0  0  0  0  0  0  0  0  0  0  0  0
   25.3070  -21.8510   -0.3930 O   0  0  0  0  0  0  0  0  0  0  0  0
   24.1980  -19.8140    0.0420 C   0  0  0  0  0  0  0  0  0  0  0  0
   22.9990  -19.6740    0.8640 N   0  0  0  0  0  0  0  0  0  0  0  0
   22.5880  -20.6360    1.7750 C   0  0  0  0  0  0  0  0  0  0  0  0
   23.4730  -21.6180    2.2060 C   0  0  0  0  0  0  0  0  0  0  0  0
   23.0350  -22.5770    3.0890 C   0  0  0  0  0  0  0  0  0  0  0  0
   21.7200  -22.5800    3.5230 C   0  0  0  0  0  0  0  0  0  0  0  0
   20.8360  -21.6380    3.0690 C   0  0  0  0  0  0  0  0  0  0  0  0
   21.2640  -20.6620    2.1830 C   0  0  0  0  0  0  0  0  0  0  0  0
   24.4490  -18.6370   -0.9360 C   0  0  0  0  0  0  0  0  0  0  0  0
   25.7830  -18.3270   -0.2340 C   0  0  0  0  0  0  0  0  0  0  0  0
   25.4180  -19.3230    0.8780 C   0  0  0  0  0  0  0  0  0  0  0  0
   23.3630  -23.1900   -1.8100 C   0  0  0  0  0  0  0  0  0  0  0  0
   22.0690  -23.9430   -1.5380 C   0  0  0  0  0  0  0  0  0  0  0  0
   20.1500  -27.5470   -3.9720 H   0  0  0  0  0  0  0  0  0  0  0  0
   19.0940  -28.5160   -2.9930 H   0  0  0  0  0  0  0  0  0  0  0  0
   20.5720  -25.6480   -3.2830 H   0  0  0  0  0  0  0  0  0  0  0  0
   19.4530  -24.3430   -0.9950 H   0  0  0  0  0  0  0  0  0  0  0  0
   18.7700  -23.6820   -2.4660 H   0  0  0  0  0  0  0  0  0  0  0  0
   21.0880  -23.2550   -3.3300 H   0  0  0  0  0  0  0  0  0  0  0  0
   20.6210  -22.0140   -0.5730 H   0  0  0  0  0  0  0  0  0  0  0  0
   19.9420  -21.4040   -2.0500 H   0  0  0  0  0  0  0  0  0  0  0  0
   21.9330  -20.1330   -1.4240 H   0  0  0  0  0  0  0  0  0  0  0  0
   22.2070  -20.9470   -2.9270 H   0  0  0  0  0  0  0  0  0  0  0  0
   22.3190  -18.9860    0.5710 H   0  0  0  0  0  0  0  0  0  0  0  0
   24.5240  -21.6190    1.9680 H   0  0  0  0  0  0  0  0  0  0  0  0
   23.7260  -23.2930    3.4800 H   0  0  0  0  0  0  0  0  0  0  0  0
   21.3870  -23.3370    4.2180 H   0  0  0  0  0  0  0  0  0  0  0  0
   19.8080  -21.6570    3.3950 H   0  0  0  0  0  0  0  0  0  0  0  0
   20.5670  -19.9140    1.8330 H   0  0  0  0  0  0  0  0  0  0  0  0
   23.7210  -17.8300   -0.8390 H   0  0  0  0  0  0  0  0  0  0  0  0
   24.5720  -18.9290   -1.9800 H   0  0  0  0  0  0  0  0  0  0  0  0
   25.8800  -17.2960    0.1070 H   0  0  0  0  0  0  0  0  0  0  0  0
   26.6510  -18.6450   -0.8140 H   0  0  0  0  0  0  0  0  0  0  0  0
   26.2050  -20.0540    1.0660 H   0  0  0  0  0  0  0  0  0  0  0  0
   25.1470  -18.8160    1.8050 H   0  0  0  0  0  0  0  0  0  0  0  0
   24.1730  -23.7440   -1.3340 H   0  0  0  0  0  0  0  0  0  0  0  0
   23.5840  -23.1990   -2.8780 H   0  0  0  0  0  0  0  0  0  0  0  0
   22.2140  -24.9750   -1.8590 H   0  0  0  0  0  0  0  0  0  0  0  0
   21.8890  -23.9940   -0.4620 H   0  0  0  0  0  0  0  0  0  0  0  0
  1  2  2  0  0  0  0
  2  3  1  0  0  0  0
  2  4  1  0  0  0  0
  3 25  1  0  0  0  0
  3 26  1  0  0  0  0
  4  5  1  0  0  0  0
  4 27  1  0  0  0  0
  5  6  1  0  0  0  0
  5 28  1  0  0  0  0
  5 29  1  0  0  0  0
  6  7  1  0  0  0  0
  6 24  1  0  0  0  0
  6 30  1  0  0  0  0
  7  8  1  0  0  0  0
  7 31  1  0  0  0  0
  7 32  1  0  0  0  0
  8  9  1  0  0  0  0
  8 33  1  0  0  0  0
  8 34  1  0  0  0  0
  9 10  1  0  0  0  0
  9 23  1  0  0  0  0
 10 11  2  0  0  0  0
 10 12  1  0  0  0  0
 12 13  1  0  0  0  0
 12 20  1  0  0  0  0
 12 22  1  0  0  0  0
 13 14  1  0  0  0  0
 13 35  1  0  0  0  0
 14 15  2  0  0  0  0
 14 19  1  0  0  0  0
 15 16  1  0  0  0  0
 15 36  1  0  0  0  0
 16 17  2  0  0  0  0
 16 37  1  0  0  0  0
 17 18  1  0  0  0  0
 17 38  1  0  0  0  0
 18 19  2  0  0  0  0
 18 39  1  0  0  0  0
 19 40  1  0  0  0  0
 20 21  1  0  0  0  0
 20 41  1  0  0  0  0
 20 42  1  0  0  0  0
 21 22  1  0  0  0  0
 21 43  1  0  0  0  0
 21 44  1  0  0  0  0
 22 45  1  0  0  0  0
 22 46  1  0  0  0  0
 23 24  1  0  0  0  0
 23 47  1  0  0  0  0
 23 48  1  0  0  0  0
 24 49  1  0  0  0  0
 24 50  1  0  0  0  0
M  END
>  <COMPND>
    title: molecule 1

$$$$
8ATP_ligand0.pdb
 OpenBabel06042612053D

 56 58  0  0  0  0  0  0  0  0999 V2000
  -19.4950  -20.9560    2.5600 C   0  0  0  0  0  0  0  0  0  0  0  0
  -18.7430  -22.0350    2.9780 C   0  0  0  0  0  0  0  0  0  0  0  0
  -18.9160  -20.0140    1.7300 C   0  0  0  0  0  0  0  0  0  0  0  0
  -14.6030  -18.8230    0.9190 C   0  0  0  0  0  0  0  0  0  0  0  0
  -14.7040  -17.4050    1.3850 C   0  0  0  0  0  0  0  0  0  0  0  0
  -17.4220  -22.1960    2.6460 C   0  0  0  0  0  0  0  0  0  0  0  0
  -19.2180  -24.1900   -1.3490 C   0  0  0  0  0  0  0  0  0  0  0  0
  -16.0920  -21.2930   -1.4490 N   0  0  0  0  0  0  0  0  0  0  0  0
  -18.1710  -23.2370   -1.9100 C   0  0  0  0  0  0  0  0  0  0  0  0
  -18.4780  -21.7700   -1.5870 C   0  0  0  0  0  0  0  0  0  0  0  0
  -15.7000  -19.1690   -0.1100 C   0  0  0  0  0  0  0  0  0  0  0  0
  -15.3020  -20.5520   -0.6450 C   0  0  0  0  0  0  0  0  0  0  0  0
  -20.8930  -25.2900   -2.7280 C   0  0  0  0  0  0  0  0  0  0  0  0
  -15.6720  -16.7590   -0.7700 C   0  0  0  0  0  0  0  0  0  0  0  0
  -16.7790  -23.6490   -1.4340 C   0  0  0  0  0  0  0  0  0  0  0  0
  -15.7320  -22.6570   -1.8870 C   0  0  0  0  0  0  0  0  0  0  0  0
  -15.6080  -18.1740   -1.2840 C   0  0  0  0  0  0  0  0  0  0  0  0
  -20.2110  -26.3390   -2.6910 O   0  0  0  0  0  0  0  0  0  0  0  0
  -22.1480  -25.1630   -3.5740 C   0  0  0  0  0  0  0  0  0  0  0  0
  -20.4730  -24.2010   -2.0990 N   0  0  0  0  0  0  0  0  0  0  0  0
  -17.3620  -20.8590   -2.0390 C   0  0  0  0  0  0  0  0  0  0  0  0
  -14.2220  -21.0160   -0.3400 O   0  0  0  0  0  0  0  0  0  0  0  0
  -17.0160  -19.1650    0.4980 N   0  0  0  0  0  0  0  0  0  0  0  0
  -17.5650  -20.1330    1.3670 C   0  0  0  0  0  0  0  0  0  0  0  0
  -16.8340  -21.2390    1.8240 C   0  0  0  0  0  0  0  0  0  0  0  0
  -19.4830  -23.2280    4.0080 Cl  0  0  0  0  0  0  0  0  0  0  0  0
  -14.6560  -16.4680    0.2560 N   0  3  0  0  0  0  0  0  0  0  0  0
  -20.5290  -20.8610    2.8520 H   0  0  0  0  0  0  0  0  0  0  0  0
  -19.5050  -19.1780    1.3820 H   0  0  0  0  0  0  0  0  0  0  0  0
  -14.6290  -19.4780    1.7900 H   0  0  0  0  0  0  0  0  0  0  0  0
  -13.5980  -18.9060    0.4980 H   0  0  0  0  0  0  0  0  0  0  0  0
  -13.8850  -17.1740    2.0670 H   0  0  0  0  0  0  0  0  0  0  0  0
  -15.6240  -17.2560    1.9470 H   0  0  0  0  0  0  0  0  0  0  0  0
  -16.8490  -23.0290    3.0150 H   0  0  0  0  0  0  0  0  0  0  0  0
  -19.4580  -23.8950   -0.3270 H   0  0  0  0  0  0  0  0  0  0  0  0
  -18.7790  -25.1810   -1.2360 H   0  0  0  0  0  0  0  0  0  0  0  0
  -18.1660  -23.3430   -2.9930 H   0  0  0  0  0  0  0  0  0  0  0  0
  -18.6440  -21.6630   -0.5180 H   0  0  0  0  0  0  0  0  0  0  0  0
  -19.4000  -21.4610   -2.0660 H   0  0  0  0  0  0  0  0  0  0  0  0
  -16.6590  -16.5490   -0.3550 H   0  0  0  0  0  0  0  0  0  0  0  0
  -15.5360  -16.0600   -1.5950 H   0  0  0  0  0  0  0  0  0  0  0  0
  -16.5250  -24.6420   -1.8050 H   0  0  0  0  0  0  0  0  0  0  0  0
  -16.7720  -23.6990   -0.3440 H   0  0  0  0  0  0  0  0  0  0  0  0
  -14.7570  -22.9960   -1.5340 H   0  0  0  0  0  0  0  0  0  0  0  0
  -15.6600  -22.6660   -2.9760 H   0  0  0  0  0  0  0  0  0  0  0  0
  -16.3780  -18.2920   -2.0400 H   0  0  0  0  0  0  0  0  0  0  0  0
  -14.6610  -18.3040   -1.8120 H   0  0  0  0  0  0  0  0  0  0  0  0
  -22.9050  -25.8420   -3.1890 H   0  0  0  0  0  0  0  0  0  0  0  0
  -22.5440  -24.1520   -3.5330 H   0  0  0  0  0  0  0  0  0  0  0  0
  -20.9990  -23.3390   -2.1750 H   0  0  0  0  0  0  0  0  0  0  0  0
  -17.2730  -20.8930   -3.1260 H   0  0  0  0  0  0  0  0  0  0  0  0
  -17.6770  -19.8500   -1.8120 H   0  0  0  0  0  0  0  0  0  0  0  0
  -17.6230  -18.4000    0.2390 H   0  0  0  0  0  0  0  0  0  0  0  0
  -15.7860  -21.3850    1.6430 H   0  0  0  0  0  0  0  0  0  0  0  0
  -13.7420  -16.5170   -0.1810 H   0  0  0  0  0  0  0  0  0  0  0  0
  -14.7960  -15.5290    0.6020 H   0  0  0  0  0  0  0  0  0  0  0  0
  1  2  2  0  0  0  0
  1  3  1  0  0  0  0
  1 28  1  0  0  0  0
  2  6  1  0  0  0  0
  2 26  1  0  0  0  0
  3 24  2  0  0  0  0
  3 29  1  0  0  0  0
  4  5  1  0  0  0  0
  4 11  1  0  0  0  0
  4 30  1  0  0  0  0
  4 31  1  0  0  0  0
  5 27  1  0  0  0  0
  5 32  1  0  0  0  0
  5 33  1  0  0  0  0
  6 25  2  0  0  0  0
  6 34  1  0  0  0  0
  7  9  1  0  0  0  0
  7 20  1  0  0  0  0
  7 35  1  0  0  0  0
  7 36  1  0  0  0  0
  8 12  1  0  0  0  0
  8 16  1  0  0  0  0
  8 21  1  0  0  0  0
  9 10  1  0  0  0  0
  9 15  1  0  0  0  0
  9 37  1  0  0  0  0
 10 21  1  0  0  0  0
 10 38  1  0  0  0  0
 10 39  1  0  0  0  0
 11 12  1  0  0  0  0
 11 17  1  0  0  0  0
 11 23  1  0  0  0  0
 12 22  2  0  0  0  0
 13 18  2  0  0  0  0
 13 19  1  0  0  0  0
 13 20  1  0  0  0  0
 14 17  1  0  0  0  0
 14 27  1  0  0  0  0
 14 40  1  0  0  0  0
 14 41  1  0  0  0  0
 15 16  1  0  0  0  0
 15 42  1  0  0  0  0
 15 43  1  0  0  0  0
 16 44  1  0  0  0  0
 16 45  1  0  0  0  0
 17 46  1  0  0  0  0
 17 47  1  0  0  0  0
 19 48  1  0  0  0  0
 19 49  1  0  0  0  0
 20 50  1  0  0  0  0
 21 51  1  0  0  0  0
 21 52  1  0  0  0  0
 23 24  1  0  0  0  0
 23 53  1  0  0  0  0
 24 25  1  0  0  0  0
 25 54  1  0  0  0  0
 27 55  1  0  0  0  0
 27 56  1  0  0  0  0
M  CHG  1  27   1
M  END
>  <COMPND>
    title: molecule 1

$$$$
8ATR_ligand0.pdb
 OpenBabel06042612053D

 52 54  0  0  0  0  0  0  0  0999 V2000
   20.6820   24.1570   -2.4610 N   0  0  0  0  0  0  0  0  0  0  0  0
   22.3020   25.2740   -3.8930 C   0  0  0  0  0  0  0  0  0  0  0  0
   19.6010   24.0830   -1.4820 C   0  0  0  0  0  0  0  0  0  0  0  0
   18.2800   23.6330   -2.0890 C   0  0  0  0  0  0  0  0  0  0  0  0
   18.4090   22.2310   -2.6790 C   0  0  0  0  0  0  0  0  0  0  0  0
   17.0620   21.6620   -3.0860 C   0  0  0  0  0  0  0  0  0  0  0  0
   15.6880   20.5210   -1.4130 C   0  0  0  0  0  0  0  0  0  0  0  0
   14.7360   20.5310   -0.1970 C   0  0  0  0  0  0  0  0  0  0  0  0
   16.4640   21.3920    1.4160 C   0  0  0  0  0  0  0  0  0  0  0  0
   17.4670   20.5230    1.0760 C   0  0  0  0  0  0  0  0  0  0  0  0
   18.7500   20.7240    1.5650 C   0  0  0  0  0  0  0  0  0  0  0  0
   18.9910   21.7800    2.4060 C   0  0  0  0  0  0  0  0  0  0  0  0
   17.9870   22.6450    2.7580 C   0  0  0  0  0  0  0  0  0  0  0  0
   20.3140   26.3090   -3.0960 O   0  0  0  0  0  0  0  0  0  0  0  0
   21.0040   25.2710   -3.1190 C   0  0  0  0  0  0  0  0  0  0  0  0
   16.1480   21.6790   -1.9330 N   0  0  0  0  0  0  0  0  0  0  0  0
   15.9940   19.4220   -1.8800 O   0  0  0  0  0  0  0  0  0  0  0  0
   15.1670   21.2950    0.9630 O   0  0  0  0  0  0  0  0  0  0  0  0
   20.5970   22.0500    3.0190 Cl  0  0  0  0  0  0  0  0  0  0  0  0
   16.7110   22.4360    2.2650 C   0  0  0  0  0  0  0  0  0  0  0  0
   13.3340   21.0180   -0.6330 C   0  0  0  0  0  0  0  0  0  0  0  0
   12.3300   20.2310    0.1910 C   0  0  0  0  0  0  0  0  0  0  0  0
   13.1320   19.2790    1.0580 C   0  0  0  0  0  0  0  0  0  0  0  0
   14.4530   19.1140    0.3330 C   0  0  0  0  0  0  0  0  0  0  0  0
   15.8900   23.0530   -1.4770 C   0  0  0  0  0  0  0  0  0  0  0  0
   17.1850   23.7050   -1.0260 C   0  0  0  0  0  0  0  0  0  0  0  0
   21.2710   23.3390   -2.5710 H   0  0  0  0  0  0  0  0  0  0  0  0
   22.9380   26.0720   -3.5160 H   0  0  0  0  0  0  0  0  0  0  0  0
   22.8370   24.3360   -3.7630 H   0  0  0  0  0  0  0  0  0  0  0  0
   19.4750   25.0470   -0.9910 H   0  0  0  0  0  0  0  0  0  0  0  0
   19.9090   23.3900   -0.6980 H   0  0  0  0  0  0  0  0  0  0  0  0
   18.0070   24.3140   -2.8960 H   0  0  0  0  0  0  0  0  0  0  0  0
   18.8630   21.5680   -1.9440 H   0  0  0  0  0  0  0  0  0  0  0  0
   19.0760   22.2350   -3.5380 H   0  0  0  0  0  0  0  0  0  0  0  0
   17.1720   20.6870   -3.5470 H   0  0  0  0  0  0  0  0  0  0  0  0
   16.6320   22.2850   -3.8720 H   0  0  0  0  0  0  0  0  0  0  0  0
   17.2980   19.6610    0.4510 H   0  0  0  0  0  0  0  0  0  0  0  0
   19.5460   20.0440    1.2970 H   0  0  0  0  0  0  0  0  0  0  0  0
   18.1800   23.4510    3.4450 H   0  0  0  0  0  0  0  0  0  0  0  0
   15.9050   23.0960    2.5340 H   0  0  0  0  0  0  0  0  0  0  0  0
   13.1490   20.8400   -1.6940 H   0  0  0  0  0  0  0  0  0  0  0  0
   13.2040   22.0870   -0.4650 H   0  0  0  0  0  0  0  0  0  0  0  0
   11.6770   19.6680   -0.4770 H   0  0  0  0  0  0  0  0  0  0  0  0
   11.6900   20.8830    0.7830 H   0  0  0  0  0  0  0  0  0  0  0  0
   12.6200   18.3280    1.2020 H   0  0  0  0  0  0  0  0  0  0  0  0
   13.3010   19.7180    2.0420 H   0  0  0  0  0  0  0  0  0  0  0  0
   15.2320   18.7310    0.9930 H   0  0  0  0  0  0  0  0  0  0  0  0
   14.3100   18.3840   -0.4660 H   0  0  0  0  0  0  0  0  0  0  0  0
   15.1620   23.1140   -0.6740 H   0  0  0  0  0  0  0  0  0  0  0  0
   15.4560   23.6210   -2.3020 H   0  0  0  0  0  0  0  0  0  0  0  0
   17.0300   24.7520   -0.7880 H   0  0  0  0  0  0  0  0  0  0  0  0
   17.5480   23.2340   -0.1190 H   0  0  0  0  0  0  0  0  0  0  0  0
  1  3  1  0  0  0  0
  1 15  1  0  0  0  0
  1 27  1  0  0  0  0
  2 15  1  0  0  0  0
  2 28  1  0  0  0  0
  2 29  1  0  0  0  0
  3  4  1  0  0  0  0
  3 30  1  0  0  0  0
  3 31  1  0  0  0  0
  4  5  1  0  0  0  0
  4 26  1  0  0  0  0
  4 32  1  0  0  0  0
  5  6  1  0  0  0  0
  5 33  1  0  0  0  0
  5 34  1  0  0  0  0
  6 16  1  0  0  0  0
  6 35  1  0  0  0  0
  6 36  1  0  0  0  0
  7  8  1  0  0  0  0
  7 16  1  0  0  0  0
  7 17  2  0  0  0  0
  8 18  1  0  0  0  0
  8 21  1  0  0  0  0
  8 24  1  0  0  0  0
  9 10  2  0  0  0  0
  9 18  1  0  0  0  0
  9 20  1  0  0  0  0
 10 11  1  0  0  0  0
 10 37  1  0  0  0  0
 11 12  2  0  0  0  0
 11 38  1  0  0  0  0
 12 13  1  0  0  0  0
 12 19  1  0  0  0  0
 13 20  2  0  0  0  0
 13 39  1  0  0  0  0
 14 15  2  0  0  0  0
 16 25  1  0  0  0  0
 20 40  1  0  0  0  0
 21 22  1  0  0  0  0
 21 41  1  0  0  0  0
 21 42  1  0  0  0  0
 22 23  1  0  0  0  0
 22 43  1  0  0  0  0
 22 44  1  0  0  0  0
 23 24  1  0  0  0  0
 23 45  1  0  0  0  0
 23 46  1  0  0  0  0
 24 47  1  0  0  0  0
 24 48  1  0  0  0  0
 25 26  1  0  0  0  0
 25 49  1  0  0  0  0
 25 50  1  0  0  0  0
 26 51  1  0  0  0  0
 26 52  1  0  0  0  0
M  END
>  <COMPND>
    title: molecule 1

$$$$
8ATS_ligand0.pdb
 OpenBabel06042612053D

 53 55  0  0  0  0  0  0  0  0999 V2000
   21.7370   26.1520   -2.8240 C   0  0  0  0  0  0  0  0  0  0  0  0
   21.3560   27.1320   -3.9120 C   0  0  0  0  0  0  0  0  0  0  0  0
   17.3830   19.7780    0.7450 N   0  0  0  0  0  0  0  0  0  0  0  0
   19.5560   23.2920   -2.1330 C   0  0  0  0  0  0  0  0  0  0  0  0
   19.5680   21.8760   -1.5590 C   0  0  0  0  0  0  0  0  0  0  0  0
   16.0810   21.4700   -0.6440 C   0  0  0  0  0  0  0  0  0  0  0  0
   16.1240   20.0580   -0.0130 C   0  0  0  0  0  0  0  0  0  0  0  0
   18.0680   20.6930    1.5570 C   0  0  0  0  0  0  0  0  0  0  0  0
   19.3940   20.4270    1.8970 C   0  0  0  0  0  0  0  0  0  0  0  0
   20.1060   21.3090    2.6860 C   0  0  0  0  0  0  0  0  0  0  0  0
   19.4950   22.4550    3.1360 C   0  0  0  0  0  0  0  0  0  0  0  0
   18.1850   22.7380    2.8250 C   0  0  0  0  0  0  0  0  0  0  0  0
   17.4700   21.8620    2.0360 C   0  0  0  0  0  0  0  0  0  0  0  0
   15.8640   18.9380   -1.0510 C   0  0  0  0  0  0  0  0  0  0  0  0
   14.9410   17.9220   -0.3780 C   0  0  0  0  0  0  0  0  0  0  0  0
   14.6970   18.4160    1.0380 C   0  0  0  0  0  0  0  0  0  0  0  0
   14.9260   19.9000    0.9510 C   0  0  0  0  0  0  0  0  0  0  0  0
   17.0580   23.2670   -1.9730 C   0  0  0  0  0  0  0  0  0  0  0  0
   22.8550   26.1200   -2.1960 O   0  0  0  0  0  0  0  0  0  0  0  0
   20.7510   25.2800   -2.6690 N   0  0  0  0  0  0  0  0  0  0  0  0
   20.8110   24.0940   -1.8290 C   0  0  0  0  0  0  0  0  0  0  0  0
   18.2800   21.1350   -1.8870 C   0  0  0  0  0  0  0  0  0  0  0  0
   17.0940   21.8930   -1.4390 N   0  0  0  0  0  0  0  0  0  0  0  0
   15.1150   22.1980   -0.3850 O   0  0  0  0  0  0  0  0  0  0  0  0
   20.3940   23.5760    4.1150 Cl  0  0  0  0  0  0  0  0  0  0  0  0
   18.3240   24.0060   -1.5860 C   0  0  0  0  0  0  0  0  0  0  0  0
   20.3560   27.5480   -3.7780 H   0  0  0  0  0  0  0  0  0  0  0  0
   22.0930   27.9190   -4.0640 H   0  0  0  0  0  0  0  0  0  0  0  0
   17.9080   18.9720    0.4300 H   0  0  0  0  0  0  0  0  0  0  0  0
   19.4640   23.2010   -3.2180 H   0  0  0  0  0  0  0  0  0  0  0  0
   19.6920   21.9210   -0.4780 H   0  0  0  0  0  0  0  0  0  0  0  0
   20.4420   21.3630   -1.9440 H   0  0  0  0  0  0  0  0  0  0  0  0
   19.8770   19.5290    1.5390 H   0  0  0  0  0  0  0  0  0  0  0  0
   21.1350   21.1030    2.9350 H   0  0  0  0  0  0  0  0  0  0  0  0
   17.6880   23.5980    3.2270 H   0  0  0  0  0  0  0  0  0  0  0  0
   16.4360   22.1040    1.8550 H   0  0  0  0  0  0  0  0  0  0  0  0
   16.7840   18.4590   -1.3850 H   0  0  0  0  0  0  0  0  0  0  0  0
   15.3760   19.3280   -1.9460 H   0  0  0  0  0  0  0  0  0  0  0  0
   15.3490   16.9220   -0.3510 H   0  0  0  0  0  0  0  0  0  0  0  0
   13.9970   17.8670   -0.9210 H   0  0  0  0  0  0  0  0  0  0  0  0
   15.4000   18.0090    1.7480 H   0  0  0  0  0  0  0  0  0  0  0  0
   13.6950   18.1740    1.3940 H   0  0  0  0  0  0  0  0  0  0  0  0
   14.0030   20.3190    0.5630 H   0  0  0  0  0  0  0  0  0  0  0  0
   15.0880   20.3340    1.9380 H   0  0  0  0  0  0  0  0  0  0  0  0
   16.2030   23.8620   -1.6500 H   0  0  0  0  0  0  0  0  0  0  0  0
   16.9750   23.2130   -3.0590 H   0  0  0  0  0  0  0  0  0  0  0  0
   19.9280   25.3930   -3.2430 H   0  0  0  0  0  0  0  0  0  0  0  0
   21.7050   23.5180   -2.0740 H   0  0  0  0  0  0  0  0  0  0  0  0
   20.8650   24.3720   -0.7760 H   0  0  0  0  0  0  0  0  0  0  0  0
   18.3370   20.1210   -1.5100 H   0  0  0  0  0  0  0  0  0  0  0  0
   18.2040   21.0170   -2.9690 H   0  0  0  0  0  0  0  0  0  0  0  0
   18.2570   25.0240   -1.9710 H   0  0  0  0  0  0  0  0  0  0  0  0
   18.3840   24.0950   -0.5000 H   0  0  0  0  0  0  0  0  0  0  0  0
  1  2  1  0  0  0  0
  1 19  2  0  0  0  0
  1 20  1  0  0  0  0
  2 27  1  0  0  0  0
  2 28  1  0  0  0  0
  3  7  1  0  0  0  0
  3  8  1  0  0  0  0
  3 29  1  0  0  0  0
  4  5  1  0  0  0  0
  4 21  1  0  0  0  0
  4 26  1  0  0  0  0
  4 30  1  0  0  0  0
  5 22  1  0  0  0  0
  5 31  1  0  0  0  0
  5 32  1  0  0  0  0
  6  7  1  0  0  0  0
  6 23  1  0  0  0  0
  6 24  2  0  0  0  0
  7 14  1  0  0  0  0
  7 17  1  0  0  0  0
  8  9  2  0  0  0  0
  8 13  1  0  0  0  0
  9 10  1  0  0  0  0
  9 33  1  0  0  0  0
 10 11  2  0  0  0  0
 10 34  1  0  0  0  0
 11 12  1  0  0  0  0
 11 25  1  0  0  0  0
 12 13  2  0  0  0  0
 12 35  1  0  0  0  0
 13 36  1  0  0  0  0
 14 15  1  0  0  0  0
 14 37  1  0  0  0  0
 14 38  1  0  0  0  0
 15 16  1  0  0  0  0
 15 39  1  0  0  0  0
 15 40  1  0  0  0  0
 16 17  1  0  0  0  0
 16 41  1  0  0  0  0
 16 42  1  0  0  0  0
 17 43  1  0  0  0  0
 17 44  1  0  0  0  0
 18 23  1  0  0  0  0
 18 26  1  0  0  0  0
 18 45  1  0  0  0  0
 18 46  1  0  0  0  0
 20 21  1  0  0  0  0
 20 47  1  0  0  0  0
 21 48  1  0  0  0  0
 21 49  1  0  0  0  0
 22 23  1  0  0  0  0
 22 50  1  0  0  0  0
 22 51  1  0  0  0  0
 26 52  1  0  0  0  0
 26 53  1  0  0  0  0
M  END
>  <COMPND>
    title: molecule 1

$$$$
8AU2_ligand0.pdb
 OpenBabel06042612053D

 59 61  0  0  0  0  0  0  0  0999 V2000
   21.8140   26.2530   -3.0510 C   0  0  0  0  0  0  0  0  0  0  0  0
   21.6370   27.2010   -4.2190 C   0  0  0  0  0  0  0  0  0  0  0  0
   21.3250   24.0070   -2.1370 C   0  0  0  0  0  0  0  0  0  0  0  0
   20.1930   24.1750   -1.1340 C   0  0  0  0  0  0  0  0  0  0  0  0
   18.9460   23.2540   -1.1420 C   0  0  0  0  0  0  0  0  0  0  0  0
   17.8140   23.7740   -2.0220 C   0  0  0  0  0  0  0  0  0  0  0  0
   16.4990   23.0500   -1.7770 C   0  0  0  0  0  0  0  0  0  0  0  0
   22.4850   26.6190   -2.0680 O   0  0  0  0  0  0  0  0  0  0  0  0
   21.2550   25.0470   -3.1570 N   0  0  0  0  0  0  0  0  0  0  0  0
   16.6820   21.6170   -1.4550 N   0  0  0  0  0  0  0  0  0  0  0  0
   15.7050   20.9420   -0.8050 C   0  0  0  0  0  0  0  0  0  0  0  0
   14.6570   21.5530   -0.5960 O   0  0  0  0  0  0  0  0  0  0  0  0
   15.8090   19.4880   -0.3010 C   0  0  0  0  0  0  0  0  0  0  0  0
   16.9930   19.2160    0.5340 N   0  0  0  0  0  0  0  0  0  0  0  0
   17.5820   20.1460    1.3710 C   0  0  0  0  0  0  0  0  0  0  0  0
   16.9090   21.3000    1.8140 C   0  0  0  0  0  0  0  0  0  0  0  0
   17.5460   22.2140    2.6320 C   0  0  0  0  0  0  0  0  0  0  0  0
   18.8480   21.9980    3.0050 C   0  0  0  0  0  0  0  0  0  0  0  0
   19.6400   23.1770    4.0100 Cl  0  0  0  0  0  0  0  0  0  0  0  0
   19.5410   20.8810    2.5840 C   0  0  0  0  0  0  0  0  0  0  0  0
   18.9140   19.9580    1.7680 C   0  0  0  0  0  0  0  0  0  0  0  0
   15.8030   18.5220   -1.5060 C   0  0  0  0  0  0  0  0  0  0  0  0
   15.7080   17.0930   -1.0310 C   0  0  0  0  0  0  0  0  0  0  0  0
   14.5910   16.8500   -0.1060 N   0  3  0  0  0  0  0  0  0  0  0  0
   14.6190   17.7560    1.0540 C   0  0  0  0  0  0  0  0  0  0  0  0
   14.5790   19.1860    0.5820 C   0  0  0  0  0  0  0  0  0  0  0  0
   17.9360   21.0690   -2.0060 C   0  0  0  0  0  0  0  0  0  0  0  0
   19.1730   21.7780   -1.4750 C   0  0  0  0  0  0  0  0  0  0  0  0
   20.6810   27.7180   -4.1440 H   0  0  0  0  0  0  0  0  0  0  0  0
   22.4370   27.9340   -4.3010 H   0  0  0  0  0  0  0  0  0  0  0  0
   21.3480   23.0460   -2.6380 H   0  0  0  0  0  0  0  0  0  0  0  0
   22.2840   24.0750   -1.6200 H   0  0  0  0  0  0  0  0  0  0  0  0
   19.8690   25.2150   -1.0920 H   0  0  0  0  0  0  0  0  0  0  0  0
   20.6530   24.0130   -0.1610 H   0  0  0  0  0  0  0  0  0  0  0  0
   18.5530   23.2910   -0.1240 H   0  0  0  0  0  0  0  0  0  0  0  0
   18.1020   23.6770   -3.0700 H   0  0  0  0  0  0  0  0  0  0  0  0
   17.6630   24.8420   -1.8570 H   0  0  0  0  0  0  0  0  0  0  0  0
   15.8350   23.1620   -2.6350 H   0  0  0  0  0  0  0  0  0  0  0  0
   16.0160   23.5520   -0.9390 H   0  0  0  0  0  0  0  0  0  0  0  0
   20.7580   24.8330   -4.0100 H   0  0  0  0  0  0  0  0  0  0  0  0
   17.5930   18.4720    0.2040 H   0  0  0  0  0  0  0  0  0  0  0  0
   15.8710   21.5000    1.6210 H   0  0  0  0  0  0  0  0  0  0  0  0
   17.0200   23.0810    2.9830 H   0  0  0  0  0  0  0  0  0  0  0  0
   20.5670   20.7310    2.8800 H   0  0  0  0  0  0  0  0  0  0  0  0
   19.4590   19.0830    1.4440 H   0  0  0  0  0  0  0  0  0  0  0  0
   16.6600   18.6080   -2.1660 H   0  0  0  0  0  0  0  0  0  0  0  0
   14.9370   18.7370   -2.1350 H   0  0  0  0  0  0  0  0  0  0  0  0
   16.6300   16.7830   -0.5390 H   0  0  0  0  0  0  0  0  0  0  0  0
   15.5920   16.4300   -1.8890 H   0  0  0  0  0  0  0  0  0  0  0  0
   14.6350   15.8950    0.2220 H   0  0  0  0  0  0  0  0  0  0  0  0
   13.7230   16.9880   -0.6030 H   0  0  0  0  0  0  0  0  0  0  0  0
   15.4760   17.5410    1.6910 H   0  0  0  0  0  0  0  0  0  0  0  0
   13.7390   17.5500    1.6640 H   0  0  0  0  0  0  0  0  0  0  0  0
   13.6520   19.3310    0.0250 H   0  0  0  0  0  0  0  0  0  0  0  0
   14.5190   19.8370    1.4540 H   0  0  0  0  0  0  0  0  0  0  0  0
   17.8910   21.1560   -3.0930 H   0  0  0  0  0  0  0  0  0  0  0  0
   18.0790   20.0180   -1.7990 H   0  0  0  0  0  0  0  0  0  0  0  0
   19.5460   21.2740   -0.5850 H   0  0  0  0  0  0  0  0  0  0  0  0
   19.9390   21.6330   -2.2290 H   0  0  0  0  0  0  0  0  0  0  0  0
  1  2  1  0  0  0  0
  1  8  2  0  0  0  0
  1  9  1  0  0  0  0
  2 29  1  0  0  0  0
  2 30  1  0  0  0  0
  3  4  1  0  0  0  0
  3  9  1  0  0  0  0
  3 31  1  0  0  0  0
  3 32  1  0  0  0  0
  4  5  1  0  0  0  0
  4 33  1  0  0  0  0
  4 34  1  0  0  0  0
  5  6  1  0  0  0  0
  5 28  1  0  0  0  0
  5 35  1  0  0  0  0
  6  7  1  0  0  0  0
  6 36  1  0  0  0  0
  6 37  1  0  0  0  0
  7 10  1  0  0  0  0
  7 38  1  0  0  0  0
  7 39  1  0  0  0  0
  9 40  1  0  0  0  0
 10 11  1  0  0  0  0
 10 27  1  0  0  0  0
 11 12  2  0  0  0  0
 11 13  1  0  0  0  0
 13 14  1  0  0  0  0
 13 22  1  0  0  0  0
 13 26  1  0  0  0  0
 14 15  1  0  0  0  0
 14 41  1  0  0  0  0
 15 16  2  0  0  0  0
 15 21  1  0  0  0  0
 16 17  1  0  0  0  0
 16 42  1  0  0  0  0
 17 18  2  0  0  0  0
 17 43  1  0  0  0  0
 18 19  1  0  0  0  0
 18 20  1  0  0  0  0
 20 21  2  0  0  0  0
 20 44  1  0  0  0  0
 21 45  1  0  0  0  0
 22 23  1  0  0  0  0
 22 46  1  0  0  0  0
 22 47  1  0  0  0  0
 23 24  1  0  0  0  0
 23 48  1  0  0  0  0
 23 49  1  0  0  0  0
 24 25  1  0  0  0  0
 24 50  1  0  0  0  0
 24 51  1  0  0  0  0
 25 26  1  0  0  0  0
 25 52  1  0  0  0  0
 25 53  1  0  0  0  0
 26 54  1  0  0  0  0
 26 55  1  0  0  0  0
 27 28  1  0  0  0  0
 27 56  1  0  0  0  0
 27 57  1  0  0  0  0
 28 58  1  0  0  0  0
 28 59  1  0  0  0  0
M  CHG  1  24   1
M  END
>  <COMPND>
    title: molecule 1

$$$$
8AUS_ligand0.pdb
 OpenBabel06042612053D

 61 64  0  0  0  0  0  0  0  0999 V2000
   21.0970   23.1700   -1.9790 C   0  0  0  0  0  0  0  0  0  0  0  0
   18.7330   21.9460    3.1310 C   0  0  0  0  0  0  0  0  0  0  0  0
   19.8220   22.8710   -2.7970 C   0  0  0  0  0  0  0  0  0  0  0  0
   19.0320   22.7830   -1.4680 C   0  0  0  0  0  0  0  0  0  0  0  0
   17.2930   20.0280    1.7280 C   0  0  0  0  0  0  0  0  0  0  0  0
   18.9560   21.3920   -0.8420 C   0  0  0  0  0  0  0  0  0  0  0  0
   17.8830   20.5520   -1.4900 C   0  0  0  0  0  0  0  0  0  0  0  0
   15.5480   20.7250   -0.5790 C   0  0  0  0  0  0  0  0  0  0  0  0
   15.5450   19.3290    0.0820 C   0  0  0  0  0  0  0  0  0  0  0  0
   18.6190   19.7940    2.1320 C   0  0  0  0  0  0  0  0  0  0  0  0
   19.3230   20.7330    2.8550 C   0  0  0  0  0  0  0  0  0  0  0  0
   21.6020   25.3140   -3.1290 N   0  0  0  0  0  0  0  0  0  0  0  0
   16.5730   21.1980   -1.3160 N   0  0  0  0  0  0  0  0  0  0  0  0
   22.1580   24.1240   -2.4910 C   0  0  0  0  0  0  0  0  0  0  0  0
   16.7030   19.0480    0.9620 N   0  0  0  0  0  0  0  0  0  0  0  0
   23.2550   26.6780   -2.3820 O   0  0  0  0  0  0  0  0  0  0  0  0
   22.2210   26.4930   -3.0760 C   0  0  0  0  0  0  0  0  0  0  0  0
   21.7440   27.5940   -4.0050 C   0  0  0  0  0  0  0  0  0  0  0  0
   14.5480   21.4350   -0.5110 O   0  0  0  0  0  0  0  0  0  0  0  0
   19.6060   23.1570    4.0300 Cl  0  0  0  0  0  0  0  0  0  0  0  0
   17.4300   22.2080    2.7630 C   0  0  0  0  0  0  0  0  0  0  0  0
   16.7290   21.2780    2.0210 C   0  0  0  0  0  0  0  0  0  0  0  0
   14.3050   19.1630    0.9910 C   0  0  0  0  0  0  0  0  0  0  0  0
   14.1260   17.7410    1.4560 C   0  0  0  0  0  0  0  0  0  0  0  0
   14.0350   16.8470    0.3470 O   0  0  0  0  0  0  0  0  0  0  0  0
   15.2060   16.8970   -0.4640 C   0  0  0  0  0  0  0  0  0  0  0  0
   15.4470   18.2700   -1.0370 C   0  0  0  0  0  0  0  0  0  0  0  0
   16.5690   22.4960   -2.0160 C   0  0  0  0  0  0  0  0  0  0  0  0
   17.6380   23.4080   -1.4570 C   0  0  0  0  0  0  0  0  0  0  0  0
   20.1510   23.6400   -0.8400 C   0  0  0  0  0  0  0  0  0  0  0  0
   21.5630   22.2290   -1.6810 H   0  0  0  0  0  0  0  0  0  0  0  0
   19.8550   21.9460   -3.3720 H   0  0  0  0  0  0  0  0  0  0  0  0
   19.4980   23.7030   -3.4230 H   0  0  0  0  0  0  0  0  0  0  0  0
   18.7740   21.5160    0.2160 H   0  0  0  0  0  0  0  0  0  0  0  0
   19.9080   20.8660   -0.9150 H   0  0  0  0  0  0  0  0  0  0  0  0
   17.9550   19.5430   -1.1050 H   0  0  0  0  0  0  0  0  0  0  0  0
   18.0860   20.4470   -2.5570 H   0  0  0  0  0  0  0  0  0  0  0  0
   19.0980   18.8540    1.8980 H   0  0  0  0  0  0  0  0  0  0  0  0
   20.3340   20.5290    3.1720 H   0  0  0  0  0  0  0  0  0  0  0  0
   20.7910   25.2010   -3.7190 H   0  0  0  0  0  0  0  0  0  0  0  0
   22.7900   23.6050   -3.2010 H   0  0  0  0  0  0  0  0  0  0  0  0
   22.8120   24.3820   -1.6560 H   0  0  0  0  0  0  0  0  0  0  0  0
   17.2600   18.2350    0.7360 H   0  0  0  0  0  0  0  0  0  0  0  0
   20.7650   27.3590   -4.4250 H   0  0  0  0  0  0  0  0  0  0  0  0
   21.6410   28.4940   -3.4140 H   0  0  0  0  0  0  0  0  0  0  0  0
   16.9780   23.1410    3.0210 H   0  0  0  0  0  0  0  0  0  0  0  0
   15.7120   21.5400    1.7940 H   0  0  0  0  0  0  0  0  0  0  0  0
   13.3980   19.4280    0.4490 H   0  0  0  0  0  0  0  0  0  0  0  0
   14.3380   19.8180    1.8600 H   0  0  0  0  0  0  0  0  0  0  0  0
   13.2140   17.6570    2.0470 H   0  0  0  0  0  0  0  0  0  0  0  0
   14.9390   17.4280    2.1120 H   0  0  0  0  0  0  0  0  0  0  0  0
   15.0850   16.1820   -1.2780 H   0  0  0  0  0  0  0  0  0  0  0  0
   16.0630   16.5500    0.1130 H   0  0  0  0  0  0  0  0  0  0  0  0
   16.3290   18.2480   -1.6690 H   0  0  0  0  0  0  0  0  0  0  0  0
   14.6160   18.5120   -1.7030 H   0  0  0  0  0  0  0  0  0  0  0  0
   15.6070   23.0080   -1.9740 H   0  0  0  0  0  0  0  0  0  0  0  0
   16.7530   22.3210   -3.0770 H   0  0  0  0  0  0  0  0  0  0  0  0
   17.6350   24.3460   -2.0130 H   0  0  0  0  0  0  0  0  0  0  0  0
   17.3680   23.6750   -0.4340 H   0  0  0  0  0  0  0  0  0  0  0  0
   19.9280   24.7040   -0.9030 H   0  0  0  0  0  0  0  0  0  0  0  0
   20.4220   23.3690    0.1730 H   0  0  0  0  0  0  0  0  0  0  0  0
  1  3  1  0  0  0  0
  1 14  1  0  0  0  0
  1 30  1  0  0  0  0
  1 31  1  0  0  0  0
  2 11  2  0  0  0  0
  2 20  1  0  0  0  0
  2 21  1  0  0  0  0
  3  4  1  0  0  0  0
  3 32  1  0  0  0  0
  3 33  1  0  0  0  0
  4  6  1  0  0  0  0
  4 29  1  0  0  0  0
  4 30  1  0  0  0  0
  5 10  2  0  0  0  0
  5 15  1  0  0  0  0
  5 22  1  0  0  0  0
  6  7  1  0  0  0  0
  6 34  1  0  0  0  0
  6 35  1  0  0  0  0
  7 13  1  0  0  0  0
  7 36  1  0  0  0  0
  7 37  1  0  0  0  0
  8  9  1  0  0  0  0
  8 13  1  0  0  0  0
  8 19  2  0  0  0  0
  9 15  1  0  0  0  0
  9 23  1  0  0  0  0
  9 27  1  0  0  0  0
 10 11  1  0  0  0  0
 10 38  1  0  0  0  0
 11 39  1  0  0  0  0
 12 14  1  0  0  0  0
 12 17  1  0  0  0  0
 12 40  1  0  0  0  0
 13 28  1  0  0  0  0
 14 41  1  0  0  0  0
 14 42  1  0  0  0  0
 15 43  1  0  0  0  0
 16 17  2  0  0  0  0
 17 18  1  0  0  0  0
 18 44  1  0  0  0  0
 18 45  1  0  0  0  0
 21 22  2  0  0  0  0
 21 46  1  0  0  0  0
 22 47  1  0  0  0  0
 23 24  1  0  0  0  0
 23 48  1  0  0  0  0
 23 49  1  0  0  0  0
 24 25  1  0  0  0  0
 24 50  1  0  0  0  0
 24 51  1  0  0  0  0
 25 26  1  0  0  0  0
 26 27  1  0  0  0  0
 26 52  1  0  0  0  0
 26 53  1  0  0  0  0
 27 54  1  0  0  0  0
 27 55  1  0  0  0  0
 28 29  1  0  0  0  0
 28 56  1  0  0  0  0
 28 57  1  0  0  0  0
 29 58  1  0  0  0  0
 29 59  1  0  0  0  0
 30 60  1  0  0  0  0
 30 61  1  0  0  0  0
M  END
>  <COMPND>
    title: molecule 1

$$$$
8AUY_ligand0.pdb
 OpenBabel06042612053D

 61 64  0  0  0  0  0  0  0  0999 V2000
  -22.2550  -26.3890   -2.9320 C   0  0  0  0  0  0  0  0  0  0  0  0
  -21.8510  -27.5750   -3.7910 C   0  0  0  0  0  0  0  0  0  0  0  0
  -21.8260  -24.0440   -2.2570 C   0  0  0  0  0  0  0  0  0  0  0  0
  -20.6660  -23.5630   -1.4060 C   0  0  0  0  0  0  0  0  0  0  0  0
  -19.0830  -24.7400   -2.9300 C   0  0  0  0  0  0  0  0  0  0  0  0
  -20.2570  -25.1690   -3.7850 C   0  0  0  0  0  0  0  0  0  0  0  0
  -19.3920  -22.1820   -3.1640 C   0  0  0  0  0  0  0  0  0  0  0  0
  -18.4950  -21.4450   -2.1520 C   0  0  0  0  0  0  0  0  0  0  0  0
  -15.5990  -19.7050   -1.2340 C   0  0  0  0  0  0  0  0  0  0  0  0
  -15.2970  -18.6790   -0.1350 C   0  0  0  0  0  0  0  0  0  0  0  0
  -17.1480  -19.6210    1.4110 C   0  0  0  0  0  0  0  0  0  0  0  0
  -16.5980  -20.8840    1.6950 C   0  0  0  0  0  0  0  0  0  0  0  0
  -23.2730  -26.4540   -2.2530 O   0  0  0  0  0  0  0  0  0  0  0  0
  -21.4830  -25.2820   -2.9780 N   0  0  0  0  0  0  0  0  0  0  0  0
  -19.3950  -23.4190   -2.2350 C   0  0  0  0  0  0  0  0  0  0  0  0
  -17.3250  -20.6640   -2.7070 C   0  0  0  0  0  0  0  0  0  0  0  0
  -16.8400  -19.6960   -1.7320 N   0  0  0  0  0  0  0  0  0  0  0  0
  -14.7320  -20.4930   -1.6110 O   0  0  0  0  0  0  0  0  0  0  0  0
  -16.4510  -18.5600    0.7810 N   0  0  0  0  0  0  0  0  0  0  0  0
  -17.3530  -21.8540    2.3320 C   0  0  0  0  0  0  0  0  0  0  0  0
  -18.6530  -21.5720    2.6860 C   0  0  0  0  0  0  0  0  0  0  0  0
  -19.6030  -22.7800    3.4980 Cl  0  0  0  0  0  0  0  0  0  0  0  0
  -19.2190  -20.3450    2.4290 C   0  0  0  0  0  0  0  0  0  0  0  0
  -18.4740  -19.3690    1.7980 C   0  0  0  0  0  0  0  0  0  0  0  0
  -15.0490  -17.3350   -0.8460 C   0  0  0  0  0  0  0  0  0  0  0  0
  -14.4760  -16.2910    0.0820 C   0  0  0  0  0  0  0  0  0  0  0  0
  -13.3180  -16.7700    0.7600 O   0  0  0  0  0  0  0  0  0  0  0  0
  -13.5960  -17.9290    1.5330 C   0  0  0  0  0  0  0  0  0  0  0  0
  -14.0230  -19.0640    0.6410 C   0  0  0  0  0  0  0  0  0  0  0  0
  -18.1950  -22.7980   -1.4790 C   0  0  0  0  0  0  0  0  0  0  0  0
  -20.8070  -27.7220   -4.0450 H   0  0  0  0  0  0  0  0  0  0  0  0
  -22.0130  -28.4120   -3.1180 H   0  0  0  0  0  0  0  0  0  0  0  0
  -22.0980  -23.2850   -2.9910 H   0  0  0  0  0  0  0  0  0  0  0  0
  -22.7030  -24.1570   -1.6190 H   0  0  0  0  0  0  0  0  0  0  0  0
  -20.5070  -24.2510   -0.5760 H   0  0  0  0  0  0  0  0  0  0  0  0
  -20.9240  -22.6000   -0.9720 H   0  0  0  0  0  0  0  0  0  0  0  0
  -18.1940  -24.6470   -3.5550 H   0  0  0  0  0  0  0  0  0  0  0  0
  -18.8580  -25.5150   -2.1960 H   0  0  0  0  0  0  0  0  0  0  0  0
  -19.9390  -26.0020   -4.4000 H   0  0  0  0  0  0  0  0  0  0  0  0
  -20.4490  -24.3920   -4.5270 H   0  0  0  0  0  0  0  0  0  0  0  0
  -18.9010  -22.3560   -4.1230 H   0  0  0  0  0  0  0  0  0  0  0  0
  -20.3550  -21.7210   -3.2880 H   0  0  0  0  0  0  0  0  0  0  0  0
  -19.1280  -20.8420   -1.4990 H   0  0  0  0  0  0  0  0  0  0  0  0
  -15.6150  -21.1730    1.3830 H   0  0  0  0  0  0  0  0  0  0  0  0
  -17.6470  -20.0940   -3.5790 H   0  0  0  0  0  0  0  0  0  0  0  0
  -16.5460  -21.3350   -3.0710 H   0  0  0  0  0  0  0  0  0  0  0  0
  -17.4970  -19.0260   -1.3610 H   0  0  0  0  0  0  0  0  0  0  0  0
  -16.9440  -17.6780    0.7370 H   0  0  0  0  0  0  0  0  0  0  0  0
  -16.9300  -22.8260    2.5340 H   0  0  0  0  0  0  0  0  0  0  0  0
  -20.2380  -20.1400    2.7230 H   0  0  0  0  0  0  0  0  0  0  0  0
  -18.9270  -18.4080    1.6020 H   0  0  0  0  0  0  0  0  0  0  0  0
  -15.9660  -16.9560   -1.3000 H   0  0  0  0  0  0  0  0  0  0  0  0
  -14.3410  -17.4740   -1.6660 H   0  0  0  0  0  0  0  0  0  0  0  0
  -15.2220  -15.9790    0.8150 H   0  0  0  0  0  0  0  0  0  0  0  0
  -14.2060  -15.3990   -0.4830 H   0  0  0  0  0  0  0  0  0  0  0  0
  -14.3470  -17.7080    2.2920 H   0  0  0  0  0  0  0  0  0  0  0  0
  -12.6880  -18.2060    2.0690 H   0  0  0  0  0  0  0  0  0  0  0  0
  -13.2230  -19.2320   -0.0730 H   0  0  0  0  0  0  0  0  0  0  0  0
  -14.0810  -19.9670    1.2320 H   0  0  0  0  0  0  0  0  0  0  0  0
  -18.2920  -22.7900   -0.3930 H   0  0  0  0  0  0  0  0  0  0  0  0
  -17.2420  -23.2270   -1.7860 H   0  0  0  0  0  0  0  0  0  0  0  0
  1  2  1  0  0  0  0
  1 13  2  0  0  0  0
  1 14  1  0  0  0  0
  2 31  1  0  0  0  0
  2 32  1  0  0  0  0
  3  4  1  0  0  0  0
  3 14  1  0  0  0  0
  3 33  1  0  0  0  0
  3 34  1  0  0  0  0
  4 15  1  0  0  0  0
  4 35  1  0  0  0  0
  4 36  1  0  0  0  0
  5  6  1  0  0  0  0
  5 15  1  0  0  0  0
  5 37  1  0  0  0  0
  5 38  1  0  0  0  0
  6 14  1  0  0  0  0
  6 39  1  0  0  0  0
  6 40  1  0  0  0  0
  7  8  1  0  0  0  0
  7 15  1  0  0  0  0
  7 41  1  0  0  0  0
  7 42  1  0  0  0  0
  8 16  1  0  0  0  0
  8 30  1  0  0  0  0
  8 43  1  0  0  0  0
  9 10  1  0  0  0  0
  9 17  1  0  0  0  0
  9 18  2  0  0  0  0
 10 19  1  0  0  0  0
 10 25  1  0  0  0  0
 10 29  1  0  0  0  0
 11 12  2  0  0  0  0
 11 19  1  0  0  0  0
 11 24  1  0  0  0  0
 12 20  1  0  0  0  0
 12 44  1  0  0  0  0
 15 30  1  0  0  0  0
 16 17  1  0  0  0  0
 16 45  1  0  0  0  0
 16 46  1  0  0  0  0
 17 47  1  0  0  0  0
 19 48  1  0  0  0  0
 20 21  2  0  0  0  0
 20 49  1  0  0  0  0
 21 22  1  0  0  0  0
 21 23  1  0  0  0  0
 23 24  2  0  0  0  0
 23 50  1  0  0  0  0
 24 51  1  0  0  0  0
 25 26  1  0  0  0  0
 25 52  1  0  0  0  0
 25 53  1  0  0  0  0
 26 27  1  0  0  0  0
 26 54  1  0  0  0  0
 26 55  1  0  0  0  0
 27 28  1  0  0  0  0
 28 29  1  0  0  0  0
 28 56  1  0  0  0  0
 28 57  1  0  0  0  0
 29 58  1  0  0  0  0
 29 59  1  0  0  0  0
 30 60  1  0  0  0  0
 30 61  1  0  0  0  0
M  END
>  <COMPND>
    title: molecule 1

$$$$
8AV0_ligand0.pdb
 OpenBabel06042612053D

 49 50  0  0  0  0  0  0  0  0999 V2000
   21.3770   23.1270   -3.2540 C   0  0  0  0  0  0  0  0  0  0  0  0
   21.6790   24.5020   -2.6820 C   0  0  0  0  0  0  0  0  0  0  0  0
   17.8030   22.1700   -2.1730 C   0  0  0  0  0  0  0  0  0  0  0  0
   16.8360   22.3190   -1.0290 C   0  0  0  0  0  0  0  0  0  0  0  0
   16.3080   20.0260   -2.7900 C   0  0  0  0  0  0  0  0  0  0  0  0
   14.9150   19.4750   -0.7970 C   0  0  0  0  0  0  0  0  0  0  0  0
   14.1680   19.9310    0.4370 C   0  0  0  0  0  0  0  0  0  0  0  0
   12.8330   20.5730    0.0640 C   0  0  0  0  0  0  0  0  0  0  0  0
   17.7850   22.2800    2.8200 C   0  0  0  0  0  0  0  0  0  0  0  0
   16.4690   22.1290    2.4280 C   0  0  0  0  0  0  0  0  0  0  0  0
   16.0910   21.0330    1.6690 C   0  0  0  0  0  0  0  0  0  0  0  0
   13.9800   18.7720    1.4080 C   0  0  0  0  0  0  0  0  0  0  0  0
   19.3160   22.2590   -2.1280 C   0  0  0  0  0  0  0  0  0  0  0  0
   18.3480   20.2420    1.6900 C   0  0  0  0  0  0  0  0  0  0  0  0
   18.7070   21.3290    2.4430 C   0  0  0  0  0  0  0  0  0  0  0  0
   15.4630   21.8270   -1.4860 C   0  0  0  0  0  0  0  0  0  0  0  0
   17.6790   20.7210   -2.7490 C   0  0  0  0  0  0  0  0  0  0  0  0
   17.0320   20.0920    1.2950 C   0  0  0  0  0  0  0  0  0  0  0  0
   15.5050   20.3710   -1.6220 N   0  0  0  0  0  0  0  0  0  0  0  0
   19.9630   22.7800   -3.1820 N   0  0  0  0  0  0  0  0  0  0  0  0
   14.7800   20.9490    1.2780 O   0  0  0  0  0  0  0  0  0  0  0  0
   15.0020   18.2750   -1.0010 O   0  0  0  0  0  0  0  0  0  0  0  0
   19.9300   21.8950   -1.1260 O   0  0  0  0  0  0  0  0  0  0  0  0
   20.9340   25.8430   -3.6510 S   0  5  0  0  0  0  0  0  0  0  0  0
   20.3700   21.5010    2.9060 Cl  0  0  0  0  0  0  0  0  0  0  0  0
   21.9660   22.4000   -2.6940 H   0  0  0  0  0  0  0  0  0  0  0  0
   21.6650   23.0150   -4.2900 H   0  0  0  0  0  0  0  0  0  0  0  0
   22.7590   24.6550   -2.6800 H   0  0  0  0  0  0  0  0  0  0  0  0
   21.3530   24.5770   -1.6450 H   0  0  0  0  0  0  0  0  0  0  0  0
   17.4680   22.8630   -2.9470 H   0  0  0  0  0  0  0  0  0  0  0  0
   16.7610   23.3760   -0.7730 H   0  0  0  0  0  0  0  0  0  0  0  0
   17.3190   21.8680   -0.1990 H   0  0  0  0  0  0  0  0  0  0  0  0
   16.2910   18.9720   -3.0000 H   0  0  0  0  0  0  0  0  0  0  0  0
   15.7760   20.4340   -3.6500 H   0  0  0  0  0  0  0  0  0  0  0  0
   12.2980   20.9060    0.9510 H   0  0  0  0  0  0  0  0  0  0  0  0
   12.8800   21.4230   -0.6100 H   0  0  0  0  0  0  0  0  0  0  0  0
   12.1880   19.8430   -0.4260 H   0  0  0  0  0  0  0  0  0  0  0  0
   18.0810   23.1150    3.4330 H   0  0  0  0  0  0  0  0  0  0  0  0
   15.7210   22.8450    2.7120 H   0  0  0  0  0  0  0  0  0  0  0  0
   13.4760   19.1040    2.3170 H   0  0  0  0  0  0  0  0  0  0  0  0
   13.3520   18.0000    0.9620 H   0  0  0  0  0  0  0  0  0  0  0  0
   14.9190   18.3170    1.7120 H   0  0  0  0  0  0  0  0  0  0  0  0
   19.0820   19.4990    1.4150 H   0  0  0  0  0  0  0  0  0  0  0  0
   15.1700   22.2930   -2.4290 H   0  0  0  0  0  0  0  0  0  0  0  0
   14.7500   22.2070   -0.7660 H   0  0  0  0  0  0  0  0  0  0  0  0
   18.2720   20.1660   -2.0330 H   0  0  0  0  0  0  0  0  0  0  0  0
   18.1460   20.6640   -3.7340 H   0  0  0  0  0  0  0  0  0  0  0  0
   16.8110   19.1920    0.7530 H   0  0  0  0  0  0  0  0  0  0  0  0
   19.4040   23.0340   -3.9870 H   0  0  0  0  0  0  0  0  0  0  0  0
  1  2  1  0  0  0  0
  1 20  1  0  0  0  0
  1 26  1  0  0  0  0
  1 27  1  0  0  0  0
  2 24  1  0  0  0  0
  2 28  1  0  0  0  0
  2 29  1  0  0  0  0
  3  4  1  0  0  0  0
  3 13  1  0  0  0  0
  3 17  1  0  0  0  0
  3 30  1  0  0  0  0
  4 16  1  0  0  0  0
  4 31  1  0  0  0  0
  4 32  1  0  0  0  0
  5 17  1  0  0  0  0
  5 19  1  0  0  0  0
  5 33  1  0  0  0  0
  5 34  1  0  0  0  0
  6  7  1  0  0  0  0
  6 19  1  0  0  0  0
  6 22  2  0  0  0  0
  7  8  1  0  0  0  0
  7 12  1  0  0  0  0
  7 21  1  0  0  0  0
  8 35  1  0  0  0  0
  8 36  1  0  0  0  0
  8 37  1  0  0  0  0
  9 10  2  0  0  0  0
  9 15  1  0  0  0  0
  9 38  1  0  0  0  0
 10 11  1  0  0  0  0
 10 39  1  0  0  0  0
 11 18  2  0  0  0  0
 11 21  1  0  0  0  0
 12 40  1  0  0  0  0
 12 41  1  0  0  0  0
 12 42  1  0  0  0  0
 13 20  1  0  0  0  0
 13 23  2  0  0  0  0
 14 15  2  0  0  0  0
 14 18  1  0  0  0  0
 14 43  1  0  0  0  0
 15 25  1  0  0  0  0
 16 19  1  0  0  0  0
 16 44  1  0  0  0  0
 16 45  1  0  0  0  0
 17 46  1  0  0  0  0
 17 47  1  0  0  0  0
 18 48  1  0  0  0  0
 20 49  1  0  0  0  0
M  CHG  1  24  -1
M  END
>  <COMPND>
    title: molecule 1

$$$$
8AV3_ligand0.pdb
 OpenBabel06042612053D

 55 57  0  0  0  0  0  0  0  0999 V2000
  -20.7220  -25.1930   -2.8180 C   0  0  0  0  0  0  0  0  0  0  0  0
  -22.0220  -25.2920   -3.5950 C   0  0  0  0  0  0  0  0  0  0  0  0
  -19.2930  -23.8490   -1.3230 C   0  0  0  0  0  0  0  0  0  0  0  0
  -18.1160  -23.1480   -1.9910 C   0  0  0  0  0  0  0  0  0  0  0  0
  -16.9180  -23.1540   -1.0430 C   0  0  0  0  0  0  0  0  0  0  0  0
  -15.7760  -22.2640   -1.5100 C   0  0  0  0  0  0  0  0  0  0  0  0
  -15.8340  -19.7260   -1.3080 C   0  0  0  0  0  0  0  0  0  0  0  0
  -17.6510  -22.2350    2.8830 C   0  0  0  0  0  0  0  0  0  0  0  0
  -18.7750  -21.4950    2.5980 C   0  0  0  0  0  0  0  0  0  0  0  0
  -19.9630  -26.1800   -2.7990 O   0  0  0  0  0  0  0  0  0  0  0  0
  -20.4570  -24.0470   -2.1870 N   0  0  0  0  0  0  0  0  0  0  0  0
  -16.2430  -20.9040   -1.8370 N   0  0  0  0  0  0  0  0  0  0  0  0
  -16.3020  -18.6780   -1.7590 O   0  0  0  0  0  0  0  0  0  0  0  0
  -14.8190  -19.6320   -0.1580 C   0  0  0  0  0  0  0  0  0  0  0  0
  -15.1120  -20.5080    0.9740 O   0  0  0  0  0  0  0  0  0  0  0  0
  -16.3670  -20.7710    1.4860 C   0  0  0  0  0  0  0  0  0  0  0  0
  -16.4390  -21.8720    2.3230 C   0  0  0  0  0  0  0  0  0  0  0  0
  -20.2890  -21.9730    3.3000 Cl  0  0  0  0  0  0  0  0  0  0  0  0
  -18.7190  -20.3860    1.7810 C   0  0  0  0  0  0  0  0  0  0  0  0
  -17.5050  -20.0200    1.2190 C   0  0  0  0  0  0  0  0  0  0  0  0
  -13.4330  -19.9610   -0.7330 C   0  0  0  0  0  0  0  0  0  0  0  0
  -12.3350  -19.8450    0.3180 C   0  0  0  0  0  0  0  0  0  0  0  0
  -12.3730  -18.5130    1.0050 C   0  0  0  0  0  0  0  0  0  0  0  0
  -11.4670  -18.5220    2.0500 F   0  0  0  0  0  0  0  0  0  0  0  0
  -11.9020  -17.5400    0.1420 F   0  0  0  0  0  0  0  0  0  0  0  0
  -13.7220  -18.1030    1.5240 C   0  0  0  0  0  0  0  0  0  0  0  0
  -14.7830  -18.2180    0.4360 C   0  0  0  0  0  0  0  0  0  0  0  0
  -17.2680  -20.9530   -2.8940 C   0  0  0  0  0  0  0  0  0  0  0  0
  -18.4810  -21.7260   -2.4120 C   0  0  0  0  0  0  0  0  0  0  0  0
  -22.5880  -26.1410   -3.2260 H   0  0  0  0  0  0  0  0  0  0  0  0
  -22.6340  -24.4020   -3.4540 H   0  0  0  0  0  0  0  0  0  0  0  0
  -19.6260  -23.2670   -0.4630 H   0  0  0  0  0  0  0  0  0  0  0  0
  -18.9650  -24.8030   -0.9100 H   0  0  0  0  0  0  0  0  0  0  0  0
  -17.8350  -23.7060   -2.8850 H   0  0  0  0  0  0  0  0  0  0  0  0
  -16.5640  -24.1760   -0.9750 H   0  0  0  0  0  0  0  0  0  0  0  0
  -17.2390  -22.8590   -0.0480 H   0  0  0  0  0  0  0  0  0  0  0  0
  -15.3120  -22.6940   -2.3990 H   0  0  0  0  0  0  0  0  0  0  0  0
  -15.0080  -22.2830   -0.7410 H   0  0  0  0  0  0  0  0  0  0  0  0
  -17.7100  -23.0840    3.5450 H   0  0  0  0  0  0  0  0  0  0  0  0
  -21.1010  -23.2710   -2.2860 H   0  0  0  0  0  0  0  0  0  0  0  0
  -15.5670  -22.4600    2.5360 H   0  0  0  0  0  0  0  0  0  0  0  0
  -19.6080  -19.8050    1.5830 H   0  0  0  0  0  0  0  0  0  0  0  0
  -17.4980  -19.1370    0.6040 H   0  0  0  0  0  0  0  0  0  0  0  0
  -13.2030  -19.2770   -1.5520 H   0  0  0  0  0  0  0  0  0  0  0  0
  -13.3830  -20.9570   -1.1690 H   0  0  0  0  0  0  0  0  0  0  0  0
  -11.3570  -20.0220   -0.1300 H   0  0  0  0  0  0  0  0  0  0  0  0
  -12.4860  -20.6350    1.0460 H   0  0  0  0  0  0  0  0  0  0  0  0
  -13.6830  -17.0840    1.9090 H   0  0  0  0  0  0  0  0  0  0  0  0
  -13.9930  -18.7350    2.3700 H   0  0  0  0  0  0  0  0  0  0  0  0
  -15.7420  -17.9240    0.8520 H   0  0  0  0  0  0  0  0  0  0  0  0
  -14.5570  -17.4830   -0.3380 H   0  0  0  0  0  0  0  0  0  0  0  0
  -16.8420  -21.4500   -3.7670 H   0  0  0  0  0  0  0  0  0  0  0  0
  -17.5900  -19.9790   -3.2610 H   0  0  0  0  0  0  0  0  0  0  0  0
  -18.9600  -21.1890   -1.5920 H   0  0  0  0  0  0  0  0  0  0  0  0
  -19.1880  -21.7710   -3.2270 H   0  0  0  0  0  0  0  0  0  0  0  0
  1  2  1  0  0  0  0
  1 10  2  0  0  0  0
  1 11  1  0  0  0  0
  2 30  1  0  0  0  0
  2 31  1  0  0  0  0
  3  4  1  0  0  0  0
  3 11  1  0  0  0  0
  3 32  1  0  0  0  0
  3 33  1  0  0  0  0
  4  5  1  0  0  0  0
  4 29  1  0  0  0  0
  4 34  1  0  0  0  0
  5  6  1  0  0  0  0
  5 35  1  0  0  0  0
  5 36  1  0  0  0  0
  6 12  1  0  0  0  0
  6 37  1  0  0  0  0
  6 38  1  0  0  0  0
  7 12  1  0  0  0  0
  7 13  2  0  0  0  0
  7 14  1  0  0  0  0
  8  9  2  0  0  0  0
  8 17  1  0  0  0  0
  8 39  1  0  0  0  0
  9 18  1  0  0  0  0
  9 19  1  0  0  0  0
 11 40  1  0  0  0  0
 12 28  1  0  0  0  0
 14 15  1  0  0  0  0
 14 21  1  0  0  0  0
 14 27  1  0  0  0  0
 15 16  1  0  0  0  0
 16 17  2  0  0  0  0
 16 20  1  0  0  0  0
 17 41  1  0  0  0  0
 19 20  2  0  0  0  0
 19 42  1  0  0  0  0
 20 43  1  0  0  0  0
 21 22  1  0  0  0  0
 21 44  1  0  0  0  0
 21 45  1  0  0  0  0
 22 23  1  0  0  0  0
 22 46  1  0  0  0  0
 22 47  1  0  0  0  0
 23 24  1  0  0  0  0
 23 25  1  0  0  0  0
 23 26  1  0  0  0  0
 26 27  1  0  0  0  0
 26 48  1  0  0  0  0
 26 49  1  0  0  0  0
 27 50  1  0  0  0  0
 27 51  1  0  0  0  0
 28 29  1  0  0  0  0
 28 52  1  0  0  0  0
 28 53  1  0  0  0  0
 29 54  1  0  0  0  0
 29 55  1  0  0  0  0
M  END
>  <COMPND>
    title: molecule 1

$$$$
8AV4_ligand0.pdb
 OpenBabel06042612053D

 53 55  0  0  0  0  0  0  0  0999 V2000
  -16.6530   21.0260   -1.9310 C   0  0  0  0  0  0  0  0  0  0  0  0
  -19.3920   20.6320   -2.1870 C   0  0  0  0  0  0  0  0  0  0  0  0
  -18.6350   19.7550   -1.4340 C   0  0  0  0  0  0  0  0  0  0  0  0
  -15.3400   18.0890    1.2890 C   0  0  0  0  0  0  0  0  0  0  0  0
  -13.9240   17.7120    1.6470 C   0  0  0  0  0  0  0  0  0  0  0  0
  -13.0370   18.2930   -0.4530 C   0  0  0  0  0  0  0  0  0  0  0  0
  -14.3580   18.8490   -0.9210 C   0  0  0  0  0  0  0  0  0  0  0  0
  -17.9360   21.8110    2.8370 C   0  0  0  0  0  0  0  0  0  0  0  0
  -19.5420   26.2100    2.7000 O   0  0  0  0  0  0  0  0  0  0  0  0
  -20.4060   25.3190    2.6200 C   0  0  0  0  0  0  0  0  0  0  0  0
  -21.7130   25.5230    3.3710 C   0  0  0  0  0  0  0  0  0  0  0  0
  -20.2000   24.1720    1.9700 N   0  0  0  0  0  0  0  0  0  0  0  0
  -18.8940   23.7620    1.4510 C   0  0  0  0  0  0  0  0  0  0  0  0
  -17.9170   23.3090    2.5340 C   0  0  0  0  0  0  0  0  0  0  0  0
  -16.4670   23.6150    2.1810 C   0  0  0  0  0  0  0  0  0  0  0  0
  -16.0070   22.8310    0.9660 C   0  0  0  0  0  0  0  0  0  0  0  0
  -16.1800   21.3750    1.1320 N   0  0  0  0  0  0  0  0  0  0  0  0
  -15.1600   20.5490    0.8070 C   0  0  0  0  0  0  0  0  0  0  0  0
  -14.0150   20.9880    0.8550 O   0  0  0  0  0  0  0  0  0  0  0  0
  -15.3850   19.1570    0.1850 C   0  0  0  0  0  0  0  0  0  0  0  0
  -16.6570   19.0090   -0.5070 O   0  0  0  0  0  0  0  0  0  0  0  0
  -17.2710   19.9500   -1.3060 C   0  0  0  0  0  0  0  0  0  0  0  0
  -17.4150   21.9000   -2.6970 C   0  0  0  0  0  0  0  0  0  0  0  0
  -18.7740   21.6890   -2.8090 C   0  0  0  0  0  0  0  0  0  0  0  0
  -19.7430   22.7770   -3.7520 Cl  0  0  0  0  0  0  0  0  0  0  0  0
  -13.2180   17.2540    0.4990 O   0  0  0  0  0  0  0  0  0  0  0  0
  -17.5040   20.9700    1.6480 C   0  0  0  0  0  0  0  0  0  0  0  0
  -15.5980   21.2160   -1.8430 H   0  0  0  0  0  0  0  0  0  0  0  0
  -20.4570   20.4810   -2.2860 H   0  0  0  0  0  0  0  0  0  0  0  0
  -19.1020   18.9040   -0.9670 H   0  0  0  0  0  0  0  0  0  0  0  0
  -15.8760   18.4040    2.1840 H   0  0  0  0  0  0  0  0  0  0  0  0
  -15.8520   17.1930    0.9370 H   0  0  0  0  0  0  0  0  0  0  0  0
  -13.9370   16.9070    2.3820 H   0  0  0  0  0  0  0  0  0  0  0  0
  -13.3930   18.5450    2.1110 H   0  0  0  0  0  0  0  0  0  0  0  0
  -12.3540   19.0170   -0.0500 H   0  0  0  0  0  0  0  0  0  0  0  0
  -12.5610   17.8490   -1.3200 H   0  0  0  0  0  0  0  0  0  0  0  0
  -14.7920   18.1010   -1.5870 H   0  0  0  0  0  0  0  0  0  0  0  0
  -14.1570   19.7090   -1.5570 H   0  0  0  0  0  0  0  0  0  0  0  0
  -18.8940   21.5070    3.2340 H   0  0  0  0  0  0  0  0  0  0  0  0
  -17.2460   21.6110    3.6580 H   0  0  0  0  0  0  0  0  0  0  0  0
  -22.0520   26.5160    3.0890 H   0  0  0  0  0  0  0  0  0  0  0  0
  -22.5040   24.8530    3.0430 H   0  0  0  0  0  0  0  0  0  0  0  0
  -20.9580   23.5300    1.8020 H   0  0  0  0  0  0  0  0  0  0  0  0
  -18.4730   24.6100    0.9090 H   0  0  0  0  0  0  0  0  0  0  0  0
  -19.0590   23.0060    0.6870 H   0  0  0  0  0  0  0  0  0  0  0  0
  -18.0990   23.9310    3.3920 H   0  0  0  0  0  0  0  0  0  0  0  0
  -15.8170   23.3880    3.0280 H   0  0  0  0  0  0  0  0  0  0  0  0
  -16.3400   24.6800    1.9950 H   0  0  0  0  0  0  0  0  0  0  0  0
  -14.9740   23.1170    0.7870 H   0  0  0  0  0  0  0  0  0  0  0  0
  -16.5640   23.1380    0.0800 H   0  0  0  0  0  0  0  0  0  0  0  0
  -16.9500   22.7300   -3.1990 H   0  0  0  0  0  0  0  0  0  0  0  0
  -18.2500   21.0430    0.8640 H   0  0  0  0  0  0  0  0  0  0  0  0
  -17.5010   19.9240    1.9490 H   0  0  0  0  0  0  0  0  0  0  0  0
  1 22  2  0  0  0  0
  1 23  1  0  0  0  0
  1 28  1  0  0  0  0
  2  3  2  0  0  0  0
  2 24  1  0  0  0  0
  2 29  1  0  0  0  0
  3 22  1  0  0  0  0
  3 30  1  0  0  0  0
  4  5  1  0  0  0  0
  4 20  1  0  0  0  0
  4 31  1  0  0  0  0
  4 32  1  0  0  0  0
  5 26  1  0  0  0  0
  5 33  1  0  0  0  0
  5 34  1  0  0  0  0
  6  7  1  0  0  0  0
  6 26  1  0  0  0  0
  6 35  1  0  0  0  0
  6 36  1  0  0  0  0
  7 20  1  0  0  0  0
  7 37  1  0  0  0  0
  7 38  1  0  0  0  0
  8 14  1  0  0  0  0
  8 27  1  0  0  0  0
  8 39  1  0  0  0  0
  8 40  1  0  0  0  0
  9 10  2  0  0  0  0
 10 11  1  0  0  0  0
 10 12  1  0  0  0  0
 11 41  1  0  0  0  0
 11 42  1  0  0  0  0
 12 13  1  0  0  0  0
 12 43  1  0  0  0  0
 13 14  1  0  0  0  0
 13 44  1  0  0  0  0
 13 45  1  0  0  0  0
 14 15  1  0  0  0  0
 14 46  1  0  0  0  0
 15 16  1  0  0  0  0
 15 47  1  0  0  0  0
 15 48  1  0  0  0  0
 16 17  1  0  0  0  0
 16 49  1  0  0  0  0
 16 50  1  0  0  0  0
 17 18  1  0  0  0  0
 17 27  1  0  0  0  0
 18 19  2  0  0  0  0
 18 20  1  0  0  0  0
 20 21  1  0  0  0  0
 21 22  1  0  0  0  0
 23 24  2  0  0  0  0
 23 51  1  0  0  0  0
 24 25  1  0  0  0  0
 27 52  1  0  0  0  0
 27 53  1  0  0  0  0
M  END
>  <COMPND>
    title: molecule 1

$$$$
8AV8_ligand0.pdb
 OpenBabel06042612053D

 52 54  0  0  0  0  0  0  0  0999 V2000
  -22.1480  -26.5210   -1.8910 C   0  0  0  0  0  0  0  0  0  0  0  0
  -21.8650  -27.7870   -2.6760 C   0  0  0  0  0  0  0  0  0  0  0  0
  -21.3330  -24.2960   -1.2150 C   0  0  0  0  0  0  0  0  0  0  0  0
  -20.1210  -23.4120   -1.4710 C   0  0  0  0  0  0  0  0  0  0  0  0
  -20.2360  -22.0240   -0.8480 C   0  0  0  0  0  0  0  0  0  0  0  0
  -19.0340  -21.1560   -1.1920 C   0  0  0  0  0  0  0  0  0  0  0  0
  -19.8420  -20.2540    2.5630 C   0  0  0  0  0  0  0  0  0  0  0  0
  -18.4220  -22.3970    3.5780 C   0  0  0  0  0  0  0  0  0  0  0  0
  -23.2290  -26.3980   -1.2910 O   0  0  0  0  0  0  0  0  0  0  0  0
  -21.2080  -25.5770   -1.9070 N   0  0  0  0  0  0  0  0  0  0  0  0
  -17.7670  -21.8030   -0.7950 N   0  0  0  0  0  0  0  0  0  0  0  0
  -16.7430  -21.2650   -0.0940 C   0  0  0  0  0  0  0  0  0  0  0  0
  -15.7050  -21.8830    0.1470 O   0  0  0  0  0  0  0  0  0  0  0  0
  -16.8270  -19.8190    0.4390 C   0  0  0  0  0  0  0  0  0  0  0  0
  -18.0110  -19.5680    1.2620 O   0  0  0  0  0  0  0  0  0  0  0  0
  -18.5370  -20.4760    2.1610 C   0  0  0  0  0  0  0  0  0  0  0  0
  -20.4300  -21.1250    3.4690 C   0  0  0  0  0  0  0  0  0  0  0  0
  -19.7260  -22.1910    3.9730 C   0  0  0  0  0  0  0  0  0  0  0  0
  -17.8130  -21.5420    2.6730 C   0  0  0  0  0  0  0  0  0  0  0  0
  -16.7820  -18.8100   -0.7340 C   0  0  0  0  0  0  0  0  0  0  0  0
  -15.8490  -17.6800   -0.3240 C   0  0  0  0  0  0  0  0  0  0  0  0
  -15.4330  -17.9620    1.1110 C   0  0  0  0  0  0  0  0  0  0  0  0
  -15.5650  -19.4580    1.2550 C   0  0  0  0  0  0  0  0  0  0  0  0
  -17.6360  -23.1830   -1.2960 C   0  0  0  0  0  0  0  0  0  0  0  0
  -18.8410  -24.0150   -0.9050 C   0  0  0  0  0  0  0  0  0  0  0  0
  -20.8600  -27.7650   -3.1000 H   0  0  0  0  0  0  0  0  0  0  0  0
  -21.8990  -28.6170   -1.9770 H   0  0  0  0  0  0  0  0  0  0  0  0
  -22.2370  -23.7910   -1.5620 H   0  0  0  0  0  0  0  0  0  0  0  0
  -21.4570  -24.4700   -0.1450 H   0  0  0  0  0  0  0  0  0  0  0  0
  -20.0180  -23.2960   -2.5520 H   0  0  0  0  0  0  0  0  0  0  0  0
  -20.3140  -22.1090    0.2360 H   0  0  0  0  0  0  0  0  0  0  0  0
  -21.1510  -21.5350   -1.1800 H   0  0  0  0  0  0  0  0  0  0  0  0
  -19.1800  -20.1830   -0.7340 H   0  0  0  0  0  0  0  0  0  0  0  0
  -19.0000  -20.9790   -2.2680 H   0  0  0  0  0  0  0  0  0  0  0  0
  -20.3980  -19.4140    2.1750 H   0  0  0  0  0  0  0  0  0  0  0  0
  -17.8760  -23.2010    4.0170 H   0  0  0  0  0  0  0  0  0  0  0  0
  -20.3550  -25.7480   -2.4200 H   0  0  0  0  0  0  0  0  0  0  0  0
  -21.4520  -20.9640    3.7790 H   0  0  0  0  0  0  0  0  0  0  0  0
  -20.1890  -22.8660    4.6770 H   0  0  0  0  0  0  0  0  0  0  0  0
  -16.7740  -21.7160    2.4520 H   0  0  0  0  0  0  0  0  0  0  0  0
  -17.7760  -18.4140   -0.9470 H   0  0  0  0  0  0  0  0  0  0  0  0
  -16.4200  -19.2610   -1.6600 H   0  0  0  0  0  0  0  0  0  0  0  0
  -16.3200  -16.7010   -0.4220 H   0  0  0  0  0  0  0  0  0  0  0  0
  -14.9690  -17.6830   -0.9680 H   0  0  0  0  0  0  0  0  0  0  0  0
  -16.1230  -17.4680    1.7980 H   0  0  0  0  0  0  0  0  0  0  0  0
  -14.4280  -17.6040    1.3370 H   0  0  0  0  0  0  0  0  0  0  0  0
  -14.6460  -19.8880    0.8530 H   0  0  0  0  0  0  0  0  0  0  0  0
  -15.6280  -19.7480    2.3040 H   0  0  0  0  0  0  0  0  0  0  0  0
  -16.7410  -23.7040   -0.9560 H   0  0  0  0  0  0  0  0  0  0  0  0
  -17.5490  -23.1430   -2.3830 H   0  0  0  0  0  0  0  0  0  0  0  0
  -18.6950  -25.0270   -1.2820 H   0  0  0  0  0  0  0  0  0  0  0  0
  -18.9010  -24.1030    0.1810 H   0  0  0  0  0  0  0  0  0  0  0  0
  1  2  1  0  0  0  0
  1  9  2  0  0  0  0
  1 10  1  0  0  0  0
  2 26  1  0  0  0  0
  2 27  1  0  0  0  0
  3  4  1  0  0  0  0
  3 10  1  0  0  0  0
  3 28  1  0  0  0  0
  3 29  1  0  0  0  0
  4  5  1  0  0  0  0
  4 25  1  0  0  0  0
  4 30  1  0  0  0  0
  5  6  1  0  0  0  0
  5 31  1  0  0  0  0
  5 32  1  0  0  0  0
  6 11  1  0  0  0  0
  6 33  1  0  0  0  0
  6 34  1  0  0  0  0
  7 16  2  0  0  0  0
  7 17  1  0  0  0  0
  7 35  1  0  0  0  0
  8 18  1  0  0  0  0
  8 19  2  0  0  0  0
  8 36  1  0  0  0  0
 10 37  1  0  0  0  0
 11 12  1  0  0  0  0
 11 24  1  0  0  0  0
 12 13  2  0  0  0  0
 12 14  1  0  0  0  0
 14 15  1  0  0  0  0
 14 20  1  0  0  0  0
 14 23  1  0  0  0  0
 15 16  1  0  0  0  0
 16 19  1  0  0  0  0
 17 18  2  0  0  0  0
 17 38  1  0  0  0  0
 18 39  1  0  0  0  0
 19 40  1  0  0  0  0
 20 21  1  0  0  0  0
 20 41  1  0  0  0  0
 20 42  1  0  0  0  0
 21 22  1  0  0  0  0
 21 43  1  0  0  0  0
 21 44  1  0  0  0  0
 22 23  1  0  0  0  0
 22 45  1  0  0  0  0
 22 46  1  0  0  0  0
 23 47  1  0  0  0  0
 23 48  1  0  0  0  0
 24 25  1  0  0  0  0
 24 49  1  0  0  0  0
 24 50  1  0  0  0  0
 25 51  1  0  0  0  0
 25 52  1  0  0  0  0
M  END
>  <COMPND>
    title: molecule 1

$$$$
8AWG_ligand0.pdb
 OpenBabel06042612053D

 48 49  0  0  0  0  0  0  0  0999 V2000
  -15.0310  -20.8640    1.1640 O   0  0  0  0  0  0  0  0  0  0  0  0
  -15.8180  -18.7780   -1.4920 O   0  0  0  0  0  0  0  0  0  0  0  0
  -20.0180  -26.2830   -2.8250 O   0  0  0  0  0  0  0  0  0  0  0  0
  -14.5450  -18.6110    0.8670 C   0  0  0  0  0  0  0  0  0  0  0  0
  -14.5920  -19.9470    0.1280 C   0  0  0  0  0  0  0  0  0  0  0  0
  -13.1900  -20.3690   -0.3110 C   0  0  0  0  0  0  0  0  0  0  0  0
  -16.3280  -20.9490    1.6220 C   0  0  0  0  0  0  0  0  0  0  0  0
  -16.5510  -22.0180    2.4750 C   0  0  0  0  0  0  0  0  0  0  0  0
  -17.8140  -22.2460    2.9710 C   0  0  0  0  0  0  0  0  0  0  0  0
  -18.8250  -21.3900    2.6010 C   0  0  0  0  0  0  0  0  0  0  0  0
  -20.3870  -21.6860    3.2390 Cl  0  0  0  0  0  0  0  0  0  0  0  0
  -18.6280  -20.3070    1.7780 C   0  0  0  0  0  0  0  0  0  0  0  0
  -17.3650  -20.0780    1.2790 C   0  0  0  0  0  0  0  0  0  0  0  0
  -15.5880  -19.9160   -1.0320 C   0  0  0  0  0  0  0  0  0  0  0  0
  -16.2620  -21.0300   -1.4830 N   0  0  0  0  0  0  0  0  0  0  0  0
  -17.2760  -20.9350   -2.5480 C   0  0  0  0  0  0  0  0  0  0  0  0
  -18.5090  -21.7030   -2.1250 C   0  0  0  0  0  0  0  0  0  0  0  0
  -18.2070  -23.1800   -1.9120 C   0  0  0  0  0  0  0  0  0  0  0  0
  -19.3930  -23.9330   -1.3070 C   0  0  0  0  0  0  0  0  0  0  0  0
  -20.5950  -24.1590   -2.1310 N   0  0  0  0  0  0  0  0  0  0  0  0
  -20.8450  -25.3000   -2.7780 C   0  0  0  0  0  0  0  0  0  0  0  0
  -22.1670  -25.3600   -3.5600 C   0  0  0  0  0  0  0  0  0  0  0  0
  -16.9810  -23.3620   -1.0110 C   0  0  0  0  0  0  0  0  0  0  0  0
  -15.7990  -22.4220   -1.3470 C   0  0  0  0  0  0  0  0  0  0  0  0
  -14.0360  -17.8540    0.2690 H   0  0  0  0  0  0  0  0  0  0  0  0
  -15.5120  -18.1960    1.1370 H   0  0  0  0  0  0  0  0  0  0  0  0
  -13.9750  -18.7050    1.7920 H   0  0  0  0  0  0  0  0  0  0  0  0
  -12.7180  -19.6040   -0.9280 H   0  0  0  0  0  0  0  0  0  0  0  0
  -12.5520  -20.5470    0.5530 H   0  0  0  0  0  0  0  0  0  0  0  0
  -13.1940  -21.2930   -0.8890 H   0  0  0  0  0  0  0  0  0  0  0  0
  -15.7670  -22.7010    2.7270 H   0  0  0  0  0  0  0  0  0  0  0  0
  -18.0020  -23.0740    3.6380 H   0  0  0  0  0  0  0  0  0  0  0  0
  -19.4430  -19.6420    1.5330 H   0  0  0  0  0  0  0  0  0  0  0  0
  -17.2660  -19.2020    0.6640 H   0  0  0  0  0  0  0  0  0  0  0  0
  -16.8760  -21.3300   -3.4830 H   0  0  0  0  0  0  0  0  0  0  0  0
  -17.5710  -19.9060   -2.7560 H   0  0  0  0  0  0  0  0  0  0  0  0
  -19.2680  -21.5910   -2.8900 H   0  0  0  0  0  0  0  0  0  0  0  0
  -18.9100  -21.2710   -1.2080 H   0  0  0  0  0  0  0  0  0  0  0  0
  -17.9670  -23.6250   -2.8780 H   0  0  0  0  0  0  0  0  0  0  0  0
  -19.7240  -23.4100   -0.4080 H   0  0  0  0  0  0  0  0  0  0  0  0
  -19.0380  -24.8970   -0.9440 H   0  0  0  0  0  0  0  0  0  0  0  0
  -21.2610  -23.3990   -2.2000 H   0  0  0  0  0  0  0  0  0  0  0  0
  -22.7690  -26.1880   -3.2050 H   0  0  0  0  0  0  0  0  0  0  0  0
  -22.7470  -24.4440   -3.4520 H   0  0  0  0  0  0  0  0  0  0  0  0
  -16.6530  -24.3950   -1.1010 H   0  0  0  0  0  0  0  0  0  0  0  0
  -17.2670  -23.2110    0.0300 H   0  0  0  0  0  0  0  0  0  0  0  0
  -15.0290  -22.5490   -0.5900 H   0  0  0  0  0  0  0  0  0  0  0  0
  -15.3400  -22.7290   -2.2880 H   0  0  0  0  0  0  0  0  0  0  0  0
  1  5  1  0  0  0  0
  1  7  1  0  0  0  0
  2 14  2  0  0  0  0
  3 21  2  0  0  0  0
  4  5  1  0  0  0  0
  4 25  1  0  0  0  0
  4 26  1  0  0  0  0
  4 27  1  0  0  0  0
  5  6  1  0  0  0  0
  5 14  1  0  0  0  0
  6 28  1  0  0  0  0
  6 29  1  0  0  0  0
  6 30  1  0  0  0  0
  7  8  2  0  0  0  0
  7 13  1  0  0  0  0
  8  9  1  0  0  0  0
  8 31  1  0  0  0  0
  9 10  2  0  0  0  0
  9 32  1  0  0  0  0
 10 11  1  0  0  0  0
 10 12  1  0  0  0  0
 12 13  2  0  0  0  0
 12 33  1  0  0  0  0
 13 34  1  0  0  0  0
 14 15  1  0  0  0  0
 15 16  1  0  0  0  0
 15 24  1  0  0  0  0
 16 17  1  0  0  0  0
 16 35  1  0  0  0  0
 16 36  1  0  0  0  0
 17 18  1  0  0  0  0
 17 37  1  0  0  0  0
 17 38  1  0  0  0  0
 18 19  1  0  0  0  0
 18 23  1  0  0  0  0
 18 39  1  0  0  0  0
 19 20  1  0  0  0  0
 19 40  1  0  0  0  0
 19 41  1  0  0  0  0
 20 21  1  0  0  0  0
 20 42  1  0  0  0  0
 21 22  1  0  0  0  0
 22 43  1  0  0  0  0
 22 44  1  0  0  0  0
 23 24  1  0  0  0  0
 23 45  1  0  0  0  0
 23 46  1  0  0  0  0
 24 47  1  0  0  0  0
 24 48  1  0  0  0  0
M  END
>  <COMPND>
    title: molecule 1

$$$$
8AXE_ligand0.pdb
 OpenBabel06042612053D

 51 52  0  0  0  0  0  0  0  0999 V2000
  -16.1250  -19.6750   -2.2900 O   0  0  0  0  0  0  0  0  0  0  0  0
  -23.0740  -26.4150   -1.9680 O   0  0  0  0  0  0  0  0  0  0  0  0
  -19.0860  -21.2770    2.6220 C   0  0  0  0  0  0  0  0  0  0  0  0
  -22.1240  -26.4110   -2.7790 C   0  0  0  0  0  0  0  0  0  0  0  0
  -17.5770  -21.8030   -3.1970 C   0  0  0  0  0  0  0  0  0  0  0  0
  -14.5680  -19.2740   -0.1650 C   0  0  0  0  0  0  0  0  0  0  0  0
  -14.9610  -20.7060   -0.5310 C   0  0  0  0  0  0  0  0  0  0  0  0
  -13.7180  -21.5060   -0.9160 C   0  0  0  0  0  0  0  0  0  0  0  0
  -15.4220  -21.2760    0.7280 O   0  0  0  0  0  0  0  0  0  0  0  0
  -16.6630  -21.2110    1.3180 C   0  0  0  0  0  0  0  0  0  0  0  0
  -17.6220  -20.2430    1.0440 C   0  0  0  0  0  0  0  0  0  0  0  0
  -18.8450  -20.2830    1.6990 C   0  0  0  0  0  0  0  0  0  0  0  0
  -20.6150  -21.3370    3.4450 Cl  0  0  0  0  0  0  0  0  0  0  0  0
  -18.1420  -22.2320    2.9100 C   0  0  0  0  0  0  0  0  0  0  0  0
  -16.9220  -22.1960    2.2600 C   0  0  0  0  0  0  0  0  0  0  0  0
  -15.9740  -20.7280   -1.6840 C   0  0  0  0  0  0  0  0  0  0  0  0
  -16.6610  -21.8350   -2.0520 N   0  0  0  0  0  0  0  0  0  0  0  0
  -16.6110  -23.1680   -1.4420 C   0  0  0  0  0  0  0  0  0  0  0  0
  -17.9890  -23.5620   -0.9390 C   0  0  0  0  0  0  0  0  0  0  0  0
  -19.0660  -23.4780   -2.0200 C   0  0  0  0  0  0  0  0  0  0  0  0
  -20.4550  -23.7070   -1.4170 C   0  0  0  0  0  0  0  0  0  0  0  0
  -21.5530  -24.0270   -2.4060 C   0  0  0  0  0  0  0  0  0  0  0  0
  -21.3560  -25.3440   -3.0110 N   0  0  0  0  0  0  0  0  0  0  0  0
  -21.8250  -27.6830   -3.5640 C   0  0  0  0  0  0  0  0  0  0  0  0
  -18.9870  -22.1340   -2.7430 C   0  0  0  0  0  0  0  0  0  0  0  0
  -17.2440  -22.5400   -3.9290 H   0  0  0  0  0  0  0  0  0  0  0  0
  -17.5950  -20.8550   -3.7360 H   0  0  0  0  0  0  0  0  0  0  0  0
  -15.4220  -18.6460    0.0840 H   0  0  0  0  0  0  0  0  0  0  0  0
  -13.9070  -19.2610    0.7010 H   0  0  0  0  0  0  0  0  0  0  0  0
  -14.0300  -18.7850   -0.9790 H   0  0  0  0  0  0  0  0  0  0  0  0
  -13.9180  -22.5580   -1.1090 H   0  0  0  0  0  0  0  0  0  0  0  0
  -13.2490  -21.1010   -1.8140 H   0  0  0  0  0  0  0  0  0  0  0  0
  -12.9700  -21.4710   -0.1230 H   0  0  0  0  0  0  0  0  0  0  0  0
  -17.4450  -19.4580    0.3270 H   0  0  0  0  0  0  0  0  0  0  0  0
  -19.5920  -19.5300    1.5020 H   0  0  0  0  0  0  0  0  0  0  0  0
  -18.3430  -22.9920    3.6490 H   0  0  0  0  0  0  0  0  0  0  0  0
  -16.1630  -22.9280    2.4780 H   0  0  0  0  0  0  0  0  0  0  0  0
  -15.9130  -23.2390   -0.6140 H   0  0  0  0  0  0  0  0  0  0  0  0
  -16.2630  -23.8870   -2.1850 H   0  0  0  0  0  0  0  0  0  0  0  0
  -18.2730  -22.9150   -0.1110 H   0  0  0  0  0  0  0  0  0  0  0  0
  -17.9480  -24.5720   -0.5320 H   0  0  0  0  0  0  0  0  0  0  0  0
  -18.8550  -24.2680   -2.7420 H   0  0  0  0  0  0  0  0  0  0  0  0
  -20.7350  -22.8160   -0.8590 H   0  0  0  0  0  0  0  0  0  0  0  0
  -20.4130  -24.5110   -0.6840 H   0  0  0  0  0  0  0  0  0  0  0  0
  -21.5870  -23.2850   -3.2010 H   0  0  0  0  0  0  0  0  0  0  0  0
  -22.5210  -23.9620   -1.9060 H   0  0  0  0  0  0  0  0  0  0  0  0
  -20.6020  -25.4340   -3.6770 H   0  0  0  0  0  0  0  0  0  0  0  0
  -20.7560  -27.7250   -3.7740 H   0  0  0  0  0  0  0  0  0  0  0  0
  -22.0450  -28.5400   -2.9300 H   0  0  0  0  0  0  0  0  0  0  0  0
  -19.6490  -22.1280   -3.6080 H   0  0  0  0  0  0  0  0  0  0  0  0
  -19.3350  -21.3420   -2.0790 H   0  0  0  0  0  0  0  0  0  0  0  0
  1 16  2  0  0  0  0
  2  4  2  0  0  0  0
  3 12  2  0  0  0  0
  3 13  1  0  0  0  0
  3 14  1  0  0  0  0
  4 23  1  0  0  0  0
  4 24  1  0  0  0  0
  5 17  1  0  0  0  0
  5 25  1  0  0  0  0
  5 26  1  0  0  0  0
  5 27  1  0  0  0  0
  6  7  1  0  0  0  0
  6 28  1  0  0  0  0
  6 29  1  0  0  0  0
  6 30  1  0  0  0  0
  7  8  1  0  0  0  0
  7  9  1  0  0  0  0
  7 16  1  0  0  0  0
  8 31  1  0  0  0  0
  8 32  1  0  0  0  0
  8 33  1  0  0  0  0
  9 10  1  0  0  0  0
 10 11  2  0  0  0  0
 10 15  1  0  0  0  0
 11 12  1  0  0  0  0
 11 34  1  0  0  0  0
 12 35  1  0  0  0  0
 14 15  2  0  0  0  0
 14 36  1  0  0  0  0
 15 37  1  0  0  0  0
 16 17  1  0  0  0  0
 17 18  1  0  0  0  0
 18 19  1  0  0  0  0
 18 38  1  0  0  0  0
 18 39  1  0  0  0  0
 19 20  1  0  0  0  0
 19 40  1  0  0  0  0
 19 41  1  0  0  0  0
 20 21  1  0  0  0  0
 20 25  1  0  0  0  0
 20 42  1  0  0  0  0
 21 22  1  0  0  0  0
 21 43  1  0  0  0  0
 21 44  1  0  0  0  0
 22 23  1  0  0  0  0
 22 45  1  0  0  0  0
 22 46  1  0  0  0  0
 23 47  1  0  0  0  0
 24 48  1  0  0  0  0
 24 49  1  0  0  0  0
 25 50  1  0  0  0  0
 25 51  1  0  0  0  0
M  END
>  <COMPND>
    title: molecule 1

$$$$
8AXU_ligand0.pdb
 OpenBabel06042612053D

 52 54  0  0  0  0  0  0  0  0999 V2000
   20.6100  -24.0450   -2.1950 N   0  0  0  0  0  0  0  0  0  0  0  0
   19.0060  -25.2400   -3.6130 C   0  0  0  0  0  0  0  0  0  0  0  0
   21.7790  -23.8830   -1.3270 C   0  0  0  0  0  0  0  0  0  0  0  0
   22.9990  -23.2070   -1.9520 C   0  0  0  0  0  0  0  0  0  0  0  0
   24.1680  -23.2470   -0.9690 C   0  0  0  0  0  0  0  0  0  0  0  0
   25.3590  -22.4000   -1.3960 C   0  0  0  0  0  0  0  0  0  0  0  0
   25.3630  -19.8300   -1.2780 C   0  0  0  0  0  0  0  0  0  0  0  0
   26.3390  -19.7230   -0.0860 C   0  0  0  0  0  0  0  0  0  0  0  0
   24.7900  -20.8470    1.4960 C   0  0  0  0  0  0  0  0  0  0  0  0
   23.7430  -20.0150    1.1800 C   0  0  0  0  0  0  0  0  0  0  0  0
   22.4870  -20.2570    1.7060 C   0  0  0  0  0  0  0  0  0  0  0  0
   22.3130  -21.3340    2.5420 C   0  0  0  0  0  0  0  0  0  0  0  0
   23.3560  -22.1710    2.8710 C   0  0  0  0  0  0  0  0  0  0  0  0
   20.9880  -26.2150   -2.7380 O   0  0  0  0  0  0  0  0  0  0  0  0
   20.2830  -25.1910   -2.7980 C   0  0  0  0  0  0  0  0  0  0  0  0
   24.9490  -21.0300   -1.7640 N   0  0  0  0  0  0  0  0  0  0  0  0
   24.9820  -18.7580   -1.7360 O   0  0  0  0  0  0  0  0  0  0  0  0
   26.0650  -20.6550    0.9950 O   0  0  0  0  0  0  0  0  0  0  0  0
   20.7430  -21.6490    3.1920 Cl  0  0  0  0  0  0  0  0  0  0  0  0
   24.6090  -21.9140    2.3390 C   0  0  0  0  0  0  0  0  0  0  0  0
   27.7650  -19.8860   -0.6260 C   0  0  0  0  0  0  0  0  0  0  0  0
   28.6480  -19.2550    0.4310 C   0  0  0  0  0  0  0  0  0  0  0  0
   27.7620  -18.2840    1.2050 C   0  0  0  0  0  0  0  0  0  0  0  0
   26.4150  -18.3040    0.5160 C   0  0  0  0  0  0  0  0  0  0  0  0
   23.9390  -21.0420   -2.8360 C   0  0  0  0  0  0  0  0  0  0  0  0
   22.6950  -21.7680   -2.3600 C   0  0  0  0  0  0  0  0  0  0  0  0
   20.0190  -23.2320   -2.3300 H   0  0  0  0  0  0  0  0  0  0  0  0
   18.3490  -26.0140   -3.2370 H   0  0  0  0  0  0  0  0  0  0  0  0
   18.4750  -24.2930   -3.5520 H   0  0  0  0  0  0  0  0  0  0  0  0
   22.0780  -24.8510   -0.9230 H   0  0  0  0  0  0  0  0  0  0  0  0
   21.4510  -23.3050   -0.4620 H   0  0  0  0  0  0  0  0  0  0  0  0
   23.2900  -23.7620   -2.8450 H   0  0  0  0  0  0  0  0  0  0  0  0
   24.4620  -24.2840   -0.8920 H   0  0  0  0  0  0  0  0  0  0  0  0
   23.8230  -22.9390    0.0140 H   0  0  0  0  0  0  0  0  0  0  0  0
   25.8350  -22.8540   -2.2660 H   0  0  0  0  0  0  0  0  0  0  0  0
   26.0990  -22.4560   -0.6030 H   0  0  0  0  0  0  0  0  0  0  0  0
   23.8270  -19.1310    0.5740 H   0  0  0  0  0  0  0  0  0  0  0  0
   21.6590  -19.6070    1.4660 H   0  0  0  0  0  0  0  0  0  0  0  0
   23.2030  -23.0110    3.5310 H   0  0  0  0  0  0  0  0  0  0  0  0
   25.4240  -22.5770    2.5660 H   0  0  0  0  0  0  0  0  0  0  0  0
   27.8970  -19.3610   -1.5750 H   0  0  0  0  0  0  0  0  0  0  0  0
   27.3740  -20.8490   -0.8400 H   0  0  0  0  0  0  0  0  0  0  0  0
   29.4650  -18.7330   -0.0490 H   0  0  0  0  0  0  0  0  0  0  0  0
   29.0530  -20.0140    1.0920 H   0  0  0  0  0  0  0  0  0  0  0  0
   28.1770  -17.2760    1.2400 H   0  0  0  0  0  0  0  0  0  0  0  0
   27.6590  -18.6300    2.2340 H   0  0  0  0  0  0  0  0  0  0  0  0
   25.6190  -18.0650    1.2190 H   0  0  0  0  0  0  0  0  0  0  0  0
   26.4220  -17.5240   -0.2470 H   0  0  0  0  0  0  0  0  0  0  0  0
   24.3570  -21.5560   -3.7030 H   0  0  0  0  0  0  0  0  0  0  0  0
   23.6470  -20.0570   -3.2020 H   0  0  0  0  0  0  0  0  0  0  0  0
   22.2400  -21.2210   -1.5340 H   0  0  0  0  0  0  0  0  0  0  0  0
   21.9900  -21.7730   -3.1740 H   0  0  0  0  0  0  0  0  0  0  0  0
  1  3  1  0  0  0  0
  1 15  1  0  0  0  0
  1 27  1  0  0  0  0
  2 15  1  0  0  0  0
  2 28  1  0  0  0  0
  2 29  1  0  0  0  0
  3  4  1  0  0  0  0
  3 30  1  0  0  0  0
  3 31  1  0  0  0  0
  4  5  1  0  0  0  0
  4 26  1  0  0  0  0
  4 32  1  0  0  0  0
  5  6  1  0  0  0  0
  5 33  1  0  0  0  0
  5 34  1  0  0  0  0
  6 16  1  0  0  0  0
  6 35  1  0  0  0  0
  6 36  1  0  0  0  0
  7  8  1  0  0  0  0
  7 16  1  0  0  0  0
  7 17  2  0  0  0  0
  8 18  1  0  0  0  0
  8 21  1  0  0  0  0
  8 24  1  0  0  0  0
  9 10  2  0  0  0  0
  9 18  1  0  0  0  0
  9 20  1  0  0  0  0
 10 11  1  0  0  0  0
 10 37  1  0  0  0  0
 11 12  2  0  0  0  0
 11 38  1  0  0  0  0
 12 13  1  0  0  0  0
 12 19  1  0  0  0  0
 13 20  2  0  0  0  0
 13 39  1  0  0  0  0
 14 15  2  0  0  0  0
 16 25  1  0  0  0  0
 20 40  1  0  0  0  0
 21 22  1  0  0  0  0
 21 41  1  0  0  0  0
 21 42  1  0  0  0  0
 22 23  1  0  0  0  0
 22 43  1  0  0  0  0
 22 44  1  0  0  0  0
 23 24  1  0  0  0  0
 23 45  1  0  0  0  0
 23 46  1  0  0  0  0
 24 47  1  0  0  0  0
 24 48  1  0  0  0  0
 25 26  1  0  0  0  0
 25 49  1  0  0  0  0
 25 50  1  0  0  0  0
 26 51  1  0  0  0  0
 26 52  1  0  0  0  0
M  END
>  <COMPND>
    title: molecule 1

$$$$
8AZE_ligand0.pdb
 OpenBabel06042612053D

 53 55  0  0  0  0  0  0  0  0999 V2000
  -20.8200  -25.0200   -2.7220 C   0  0  0  0  0  0  0  0  0  0  0  0
  -22.0350  -24.9710   -3.6140 C   0  0  0  0  0  0  0  0  0  0  0  0
  -16.8910  -19.1680    0.7070 N   0  0  0  0  0  0  0  0  0  0  0  0
  -18.0730  -22.9940   -1.9690 C   0  0  0  0  0  0  0  0  0  0  0  0
  -16.7090  -23.4850   -1.4850 C   0  0  0  0  0  0  0  0  0  0  0  0
  -15.1290  -20.6150   -0.3990 C   0  0  0  0  0  0  0  0  0  0  0  0
  -15.4960  -19.2290    0.1730 C   0  0  0  0  0  0  0  0  0  0  0  0
  -17.5390  -20.1660    1.4740 C   0  0  0  0  0  0  0  0  0  0  0  0
  -18.9030  -20.0310    1.7420 C   0  0  0  0  0  0  0  0  0  0  0  0
  -19.5810  -20.9860    2.4790 C   0  0  0  0  0  0  0  0  0  0  0  0
  -18.9010  -22.0820    2.9600 C   0  0  0  0  0  0  0  0  0  0  0  0
  -17.5530  -22.2350    2.7180 C   0  0  0  0  0  0  0  0  0  0  0  0
  -16.8700  -21.2850    1.9800 C   0  0  0  0  0  0  0  0  0  0  0  0
  -15.2540  -18.1150   -0.8740 C   0  0  0  0  0  0  0  0  0  0  0  0
  -14.5720  -16.9600   -0.1620 C   0  0  0  0  0  0  0  0  0  0  0  0
  -14.4780  -17.3490    1.3020 C   0  0  0  0  0  0  0  0  0  0  0  0
  -14.5080  -18.8560    1.3020 C   0  0  0  0  0  0  0  0  0  0  0  0
  -17.1220  -20.6380   -1.9860 C   0  0  0  0  0  0  0  0  0  0  0  0
  -20.2260  -26.0950   -2.6250 O   0  0  0  0  0  0  0  0  0  0  0  0
  -20.4030  -23.9050   -2.1230 N   0  0  0  0  0  0  0  0  0  0  0  0
  -19.1700  -23.8400   -1.3350 C   0  0  0  0  0  0  0  0  0  0  0  0
  -15.5920  -22.5260   -1.8440 C   0  0  0  0  0  0  0  0  0  0  0  0
  -15.9140  -21.1830   -1.3400 N   0  0  0  0  0  0  0  0  0  0  0  0
  -14.1330  -21.1930    0.0290 O   0  0  0  0  0  0  0  0  0  0  0  0
  -19.7500  -23.2910    3.8870 Cl  0  0  0  0  0  0  0  0  0  0  0  0
  -18.3240  -21.5120   -1.6780 C   0  0  0  0  0  0  0  0  0  0  0  0
  -22.7520  -25.7190   -3.2980 H   0  0  0  0  0  0  0  0  0  0  0  0
  -22.5110  -23.9980   -3.5370 H   0  0  0  0  0  0  0  0  0  0  0  0
  -17.4020  -18.3140    0.5310 H   0  0  0  0  0  0  0  0  0  0  0  0
  -18.0880  -23.1370   -3.0480 H   0  0  0  0  0  0  0  0  0  0  0  0
  -16.4970  -24.4770   -1.8860 H   0  0  0  0  0  0  0  0  0  0  0  0
  -16.7370  -23.5800   -0.3990 H   0  0  0  0  0  0  0  0  0  0  0  0
  -19.4440  -19.1750    1.3650 H   0  0  0  0  0  0  0  0  0  0  0  0
  -20.6370  -20.8770    2.6670 H   0  0  0  0  0  0  0  0  0  0  0  0
  -17.0290  -23.0700    3.1340 H   0  0  0  0  0  0  0  0  0  0  0  0
  -15.8090  -21.4220    1.8910 H   0  0  0  0  0  0  0  0  0  0  0  0
  -16.1850  -17.7700   -1.3250 H   0  0  0  0  0  0  0  0  0  0  0  0
  -14.6200  -18.4550   -1.6960 H   0  0  0  0  0  0  0  0  0  0  0  0
  -15.1120  -16.0210   -0.2910 H   0  0  0  0  0  0  0  0  0  0  0  0
  -13.5710  -16.8180   -0.5710 H   0  0  0  0  0  0  0  0  0  0  0  0
  -15.3350  -16.9930    1.8570 H   0  0  0  0  0  0  0  0  0  0  0  0
  -13.5870  -16.9480    1.7860 H   0  0  0  0  0  0  0  0  0  0  0  0
  -13.4850  -19.1800    1.1060 H   0  0  0  0  0  0  0  0  0  0  0  0
  -14.7920  -19.2610    2.2730 H   0  0  0  0  0  0  0  0  0  0  0  0
  -16.9540  -20.6300   -3.0640 H   0  0  0  0  0  0  0  0  0  0  0  0
  -17.3490  -19.6070   -1.7370 H   0  0  0  0  0  0  0  0  0  0  0  0
  -20.9160  -23.0430   -2.2720 H   0  0  0  0  0  0  0  0  0  0  0  0
  -19.4240  -23.4620   -0.3440 H   0  0  0  0  0  0  0  0  0  0  0  0
  -18.7830  -24.8420   -1.1440 H   0  0  0  0  0  0  0  0  0  0  0  0
  -15.4880  -22.4760   -2.9290 H   0  0  0  0  0  0  0  0  0  0  0  0
  -14.6440  -22.9340   -1.4910 H   0  0  0  0  0  0  0  0  0  0  0  0
  -18.5910  -21.3880   -0.6320 H   0  0  0  0  0  0  0  0  0  0  0  0
  -19.1780  -21.1540   -2.2450 H   0  0  0  0  0  0  0  0  0  0  0  0
  1  2  1  0  0  0  0
  1 19  2  0  0  0  0
  1 20  1  0  0  0  0
  2 27  1  0  0  0  0
  2 28  1  0  0  0  0
  3  7  1  0  0  0  0
  3  8  1  0  0  0  0
  3 29  1  0  0  0  0
  4  5  1  0  0  0  0
  4 21  1  0  0  0  0
  4 26  1  0  0  0  0
  4 30  1  0  0  0  0
  5 22  1  0  0  0  0
  5 31  1  0  0  0  0
  5 32  1  0  0  0  0
  6  7  1  0  0  0  0
  6 23  1  0  0  0  0
  6 24  2  0  0  0  0
  7 14  1  0  0  0  0
  7 17  1  0  0  0  0
  8  9  2  0  0  0  0
  8 13  1  0  0  0  0
  9 10  1  0  0  0  0
  9 33  1  0  0  0  0
 10 11  2  0  0  0  0
 10 34  1  0  0  0  0
 11 12  1  0  0  0  0
 11 25  1  0  0  0  0
 12 13  2  0  0  0  0
 12 35  1  0  0  0  0
 13 36  1  0  0  0  0
 14 15  1  0  0  0  0
 14 37  1  0  0  0  0
 14 38  1  0  0  0  0
 15 16  1  0  0  0  0
 15 39  1  0  0  0  0
 15 40  1  0  0  0  0
 16 17  1  0  0  0  0
 16 41  1  0  0  0  0
 16 42  1  0  0  0  0
 17 43  1  0  0  0  0
 17 44  1  0  0  0  0
 18 23  1  0  0  0  0
 18 26  1  0  0  0  0
 18 45  1  0  0  0  0
 18 46  1  0  0  0  0
 20 21  1  0  0  0  0
 20 47  1  0  0  0  0
 21 48  1  0  0  0  0
 21 49  1  0  0  0  0
 22 23  1  0  0  0  0
 22 50  1  0  0  0  0
 22 51  1  0  0  0  0
 26 52  1  0  0  0  0
 26 53  1  0  0  0  0
M  END
>  <COMPND>
    title: molecule 1

$$$$
8B2I_ligand0.pdb
 OpenBabel06042612053D

 27 27  0  0  0  0  0  0  0  0999 V2000
   15.6750   18.2770    2.1580 C   0  0  0  0  0  0  0  0  0  0  0  0
   15.2910   21.3160    0.2100 O   0  0  0  0  0  0  0  0  0  0  0  0
   20.8650   21.7910    3.3770 C   0  0  0  0  0  0  0  0  0  0  0  0
   18.4520   22.2260    2.9830 C   0  0  0  0  0  0  0  0  0  0  0  0
   15.8100   20.4730    0.9430 C   0  0  0  0  0  0  0  0  0  0  0  0
   14.9240   18.3000    3.4690 C   0  0  0  0  0  0  0  0  0  0  0  0
   19.5770   21.4480    2.7530 C   0  0  0  0  0  0  0  0  0  0  0  0
   19.4800   20.3420    1.9230 C   0  0  0  0  0  0  0  0  0  0  0  0
   18.2720   20.0110    1.3360 C   0  0  0  0  0  0  0  0  0  0  0  0
   17.1430   20.7890    1.5630 C   0  0  0  0  0  0  0  0  0  0  0  0
   13.9570   18.9890    0.5100 C   0  0  0  0  0  0  0  0  0  0  0  0
   17.2490   21.9010    2.3880 C   0  0  0  0  0  0  0  0  0  0  0  0
   15.2070   19.2930    1.2020 N   0  0  0  0  0  0  0  0  0  0  0  0
   15.4060   19.6690    4.5540 S   0  5  0  0  0  0  0  0  0  0  0  0
   15.5100   17.3010    1.6980 H   0  0  0  0  0  0  0  0  0  0  0  0
   16.7450   18.2840    2.3340 H   0  0  0  0  0  0  0  0  0  0  0  0
   21.3140   20.8580    3.7230 H   0  0  0  0  0  0  0  0  0  0  0  0
   21.5240   22.2160    2.6450 H   0  0  0  0  0  0  0  0  0  0  0  0
   18.4590   23.0580    3.6620 H   0  0  0  0  0  0  0  0  0  0  0  0
   15.0980   17.3700    4.0050 H   0  0  0  0  0  0  0  0  0  0  0  0
   13.8480   18.3500    3.2970 H   0  0  0  0  0  0  0  0  0  0  0  0
   20.3490   19.7290    1.7350 H   0  0  0  0  0  0  0  0  0  0  0  0
   18.2170   19.1440    0.6920 H   0  0  0  0  0  0  0  0  0  0  0  0
   14.0530   19.1110   -0.5700 H   0  0  0  0  0  0  0  0  0  0  0  0
   13.6210   17.9680    0.6890 H   0  0  0  0  0  0  0  0  0  0  0  0
   13.1720   19.6560    0.8660 H   0  0  0  0  0  0  0  0  0  0  0  0
   16.3740   22.4980    2.5930 H   0  0  0  0  0  0  0  0  0  0  0  0
  1  6  1  0  0  0  0
  1 13  1  0  0  0  0
  1 15  1  0  0  0  0
  1 16  1  0  0  0  0
  2  5  2  0  0  0  0
  3  7  1  0  0  0  0
  3 17  1  0  0  0  0
  3 18  1  0  0  0  0
  4  7  2  0  0  0  0
  4 12  1  0  0  0  0
  4 19  1  0  0  0  0
  5 10  1  0  0  0  0
  5 13  1  0  0  0  0
  6 14  1  0  0  0  0
  6 20  1  0  0  0  0
  6 21  1  0  0  0  0
  7  8  1  0  0  0  0
  8  9  2  0  0  0  0
  8 22  1  0  0  0  0
  9 10  1  0  0  0  0
  9 23  1  0  0  0  0
 10 12  2  0  0  0  0
 11 13  1  0  0  0  0
 11 24  1  0  0  0  0
 11 25  1  0  0  0  0
 11 26  1  0  0  0  0
 12 27  1  0  0  0  0
M  CHG  1  14  -1
M  END
>  <COMPND>
    title: molecule 1

$$$$
8B2K_ligand0.pdb
 OpenBabel06042612053D

 27 27  0  0  0  0  0  0  0  0999 V2000
   16.2500   20.6970    0.8450 C   0  0  0  0  0  0  0  0  0  0  0  0
   17.7180   20.7320    1.1770 C   0  0  0  0  0  0  0  0  0  0  0  0
   18.6360   19.9510    0.4840 C   0  0  0  0  0  0  0  0  0  0  0  0
   18.1750   21.5940    2.1670 C   0  0  0  0  0  0  0  0  0  0  0  0
   19.9810   20.0190    0.8050 C   0  0  0  0  0  0  0  0  0  0  0  0
   20.4290   20.8650    1.7980 C   0  0  0  0  0  0  0  0  0  0  0  0
   19.5250   21.6570    2.4940 C   0  0  0  0  0  0  0  0  0  0  0  0
   19.9960   22.5690    3.5390 C   0  0  0  0  0  0  0  0  0  0  0  0
   15.5340   19.5960    1.1470 N   0  0  0  0  0  0  0  0  0  0  0  0
   15.2370   18.4910    3.3550 C   0  0  0  0  0  0  0  0  0  0  0  0
   14.1900   19.4200    0.6010 C   0  0  0  0  0  0  0  0  0  0  0  0
   16.0140   18.5460    2.0570 C   0  0  0  0  0  0  0  0  0  0  0  0
   15.7390   21.6600    0.2740 O   0  0  0  0  0  0  0  0  0  0  0  0
   19.2910   23.2320    4.2580 O   0  0  0  0  0  0  0  0  0  0  0  0
   15.5830   19.8680    4.4810 S   0  5  0  0  0  0  0  0  0  0  0  0
   21.2420   18.9550   -0.1400 Br  0  0  0  0  0  0  0  0  0  0  0  0
   18.3050   19.2970   -0.3100 H   0  0  0  0  0  0  0  0  0  0  0  0
   17.4620   22.2140    2.6950 H   0  0  0  0  0  0  0  0  0  0  0  0
   21.4830   20.9000    2.0300 H   0  0  0  0  0  0  0  0  0  0  0  0
   21.0820   22.6090    3.6270 H   0  0  0  0  0  0  0  0  0  0  0  0
   15.4410   17.5580    3.8650 H   0  0  0  0  0  0  0  0  0  0  0  0
   14.1640   18.4810    3.1630 H   0  0  0  0  0  0  0  0  0  0  0  0
   13.8420   18.3920    0.7020 H   0  0  0  0  0  0  0  0  0  0  0  0
   13.4830   20.0630    1.1240 H   0  0  0  0  0  0  0  0  0  0  0  0
   14.1580   19.6610   -0.4630 H   0  0  0  0  0  0  0  0  0  0  0  0
   17.0850   18.5570    2.2420 H   0  0  0  0  0  0  0  0  0  0  0  0
   15.8610   17.5970    1.5410 H   0  0  0  0  0  0  0  0  0  0  0  0
  1  2  1  0  0  0  0
  1  9  1  0  0  0  0
  1 13  2  0  0  0  0
  2  3  2  0  0  0  0
  2  4  1  0  0  0  0
  3  5  1  0  0  0  0
  3 17  1  0  0  0  0
  4  7  2  0  0  0  0
  4 18  1  0  0  0  0
  5  6  2  0  0  0  0
  5 16  1  0  0  0  0
  6  7  1  0  0  0  0
  6 19  1  0  0  0  0
  7  8  1  0  0  0  0
  8 14  2  0  0  0  0
  8 20  1  0  0  0  0
  9 11  1  0  0  0  0
  9 12  1  0  0  0  0
 10 12  1  0  0  0  0
 10 15  1  0  0  0  0
 10 21  1  0  0  0  0
 10 22  1  0  0  0  0
 11 23  1  0  0  0  0
 11 24  1  0  0  0  0
 11 25  1  0  0  0  0
 12 26  1  0  0  0  0
 12 27  1  0  0  0  0
M  CHG  1  15  -1
M  END
>  <COMPND>
    title: molecule 1

$$$$
8B4Q_ligand0.pdb
 OpenBabel06042612053D

 27 27  0  0  0  0  0  0  0  0999 V2000
   15.8080   18.4610    2.0640 C   0  0  0  0  0  0  0  0  0  0  0  0
   15.4550   21.5110    0.1360 O   0  0  0  0  0  0  0  0  0  0  0  0
   20.9550   21.9150    3.4630 C   0  0  0  0  0  0  0  0  0  0  0  0
   19.6040   20.5550    1.9180 C   0  0  0  0  0  0  0  0  0  0  0  0
   15.9540   20.6600    0.8760 C   0  0  0  0  0  0  0  0  0  0  0  0
   15.0440   18.4280    3.3720 C   0  0  0  0  0  0  0  0  0  0  0  0
   19.6860   21.5990    2.8110 C   0  0  0  0  0  0  0  0  0  0  0  0
   18.5270   22.3400    3.0520 C   0  0  0  0  0  0  0  0  0  0  0  0
   17.3470   22.0210    2.4090 C   0  0  0  0  0  0  0  0  0  0  0  0
   17.2770   20.9470    1.5320 C   0  0  0  0  0  0  0  0  0  0  0  0
   14.0640   19.2060    0.4540 C   0  0  0  0  0  0  0  0  0  0  0  0
   18.4290   20.2080    1.2710 C   0  0  0  0  0  0  0  0  0  0  0  0
   20.7190   19.8310    1.6770 F   0  0  0  0  0  0  0  0  0  0  0  0
   15.3300   19.4900    1.1260 N   0  0  0  0  0  0  0  0  0  0  0  0
   15.4610   19.7780    4.5040 S   0  5  0  0  0  0  0  0  0  0  0  0
   15.6520   17.5150    1.5520 H   0  0  0  0  0  0  0  0  0  0  0  0
   16.8780   18.4690    2.2450 H   0  0  0  0  0  0  0  0  0  0  0  0
   21.3450   20.9780    3.8650 H   0  0  0  0  0  0  0  0  0  0  0  0
   21.6720   22.2870    2.7520 H   0  0  0  0  0  0  0  0  0  0  0  0
   15.2370   17.4880    3.8840 H   0  0  0  0  0  0  0  0  0  0  0  0
   13.9700   18.4500    3.1890 H   0  0  0  0  0  0  0  0  0  0  0  0
   18.4910   23.1380    3.7710 H   0  0  0  0  0  0  0  0  0  0  0  0
   16.4570   22.5940    2.6160 H   0  0  0  0  0  0  0  0  0  0  0  0
   14.1210   19.4000   -0.6190 H   0  0  0  0  0  0  0  0  0  0  0  0
   13.7580   18.1670    0.5720 H   0  0  0  0  0  0  0  0  0  0  0  0
   13.2720   19.8240    0.8780 H   0  0  0  0  0  0  0  0  0  0  0  0
   18.4130   19.3800    0.5770 H   0  0  0  0  0  0  0  0  0  0  0  0
  1  6  1  0  0  0  0
  1 14  1  0  0  0  0
  1 16  1  0  0  0  0
  1 17  1  0  0  0  0
  2  5  2  0  0  0  0
  3  7  1  0  0  0  0
  3 18  1  0  0  0  0
  3 19  1  0  0  0  0
  4  7  2  0  0  0  0
  4 12  1  0  0  0  0
  4 13  1  0  0  0  0
  5 10  1  0  0  0  0
  5 14  1  0  0  0  0
  6 15  1  0  0  0  0
  6 20  1  0  0  0  0
  6 21  1  0  0  0  0
  7  8  1  0  0  0  0
  8  9  2  0  0  0  0
  8 22  1  0  0  0  0
  9 10  1  0  0  0  0
  9 23  1  0  0  0  0
 10 12  2  0  0  0  0
 11 14  1  0  0  0  0
 11 24  1  0  0  0  0
 11 25  1  0  0  0  0
 11 26  1  0  0  0  0
 12 27  1  0  0  0  0
M  CHG  1  15  -1
M  END
>  <COMPND>
    title: molecule 1

$$$$
8B5P_ligand0.pdb
 OpenBabel06042612053D

 27 27  0  0  0  0  0  0  0  0999 V2000
  -24.9110   20.4510    0.8850 C   0  0  0  0  0  0  0  0  0  0  0  0
  -23.4590   20.4830    1.2730 C   0  0  0  0  0  0  0  0  0  0  0  0
  -22.5240   19.7210    0.5810 C   0  0  0  0  0  0  0  0  0  0  0  0
  -23.0300   21.3410    2.2790 C   0  0  0  0  0  0  0  0  0  0  0  0
  -21.1840   19.7920    0.9210 C   0  0  0  0  0  0  0  0  0  0  0  0
  -20.7670   20.6280    1.9430 C   0  0  0  0  0  0  0  0  0  0  0  0
  -21.6890   21.4080    2.6350 C   0  0  0  0  0  0  0  0  0  0  0  0
  -21.2580   22.3200    3.7060 C   0  0  0  0  0  0  0  0  0  0  0  0
  -25.6580   19.3680    1.1650 N   0  0  0  0  0  0  0  0  0  0  0  0
  -25.9560   18.2340    3.3620 C   0  0  0  0  0  0  0  0  0  0  0  0
  -27.0070   19.2720    0.6120 C   0  0  0  0  0  0  0  0  0  0  0  0
  -25.2190   18.2670    2.0360 C   0  0  0  0  0  0  0  0  0  0  0  0
  -25.3790   21.4160    0.2820 O   0  0  0  0  0  0  0  0  0  0  0  0
  -25.4880   19.5830    4.4790 S   0  5  0  0  0  0  0  0  0  0  0  0
  -19.9110   18.7420   -0.0280 Br  0  0  0  0  0  0  0  0  0  0  0  0
  -22.8380   19.0750   -0.2250 H   0  0  0  0  0  0  0  0  0  0  0  0
  -23.7520   21.9580    2.7970 H   0  0  0  0  0  0  0  0  0  0  0  0
  -19.7130   20.6760    2.1680 H   0  0  0  0  0  0  0  0  0  0  0  0
  -21.2030   23.3220    3.3150 H   0  0  0  0  0  0  0  0  0  0  0  0
  -22.0380   22.3300    4.4680 H   0  0  0  0  0  0  0  0  0  0  0  0
  -25.7620   17.2930    3.8670 H   0  0  0  0  0  0  0  0  0  0  0  0
  -27.0340   18.2740    3.2100 H   0  0  0  0  0  0  0  0  0  0  0  0
  -27.4440   18.2890    0.7810 H   0  0  0  0  0  0  0  0  0  0  0  0
  -27.6690   20.0040    1.0710 H   0  0  0  0  0  0  0  0  0  0  0  0
  -27.0060   19.4370   -0.4670 H   0  0  0  0  0  0  0  0  0  0  0  0
  -24.1440   18.2300    2.2000 H   0  0  0  0  0  0  0  0  0  0  0  0
  -25.4330   17.3370    1.5080 H   0  0  0  0  0  0  0  0  0  0  0  0
  1  2  1  0  0  0  0
  1  9  1  0  0  0  0
  1 13  2  0  0  0  0
  2  3  2  0  0  0  0
  2  4  1  0  0  0  0
  3  5  1  0  0  0  0
  3 16  1  0  0  0  0
  4  7  2  0  0  0  0
  4 17  1  0  0  0  0
  5  6  2  0  0  0  0
  5 15  1  0  0  0  0
  6  7  1  0  0  0  0
  6 18  1  0  0  0  0
  7  8  1  0  0  0  0
  8 19  1  0  0  0  0
  8 20  1  0  0  0  0
  9 11  1  0  0  0  0
  9 12  1  0  0  0  0
 10 12  1  0  0  0  0
 10 14  1  0  0  0  0
 10 21  1  0  0  0  0
 10 22  1  0  0  0  0
 11 23  1  0  0  0  0
 11 24  1  0  0  0  0
 11 25  1  0  0  0  0
 12 26  1  0  0  0  0
 12 27  1  0  0  0  0
M  CHG  1  14  -1
M  END
>  <COMPND>
    title: molecule 1

$$$$
8BJG_ligand0.pdb
 OpenBabel06042612053D

 27 27  0  0  0  0  0  0  0  0999 V2000
   14.3530   19.8650    0.4540 C   0  0  0  0  0  0  0  0  0  0  0  0
   16.1650   18.9460    1.8970 C   0  0  0  0  0  0  0  0  0  0  0  0
   17.7960   21.2460    1.2730 C   0  0  0  0  0  0  0  0  0  0  0  0
   18.8390   20.6550    0.5620 C   0  0  0  0  0  0  0  0  0  0  0  0
   20.1390   20.7550    1.0280 C   0  0  0  0  0  0  0  0  0  0  0  0
   20.4110   21.4400    2.1990 C   0  0  0  0  0  0  0  0  0  0  0  0
   19.3780   22.0610    2.9050 C   0  0  0  0  0  0  0  0  0  0  0  0
   19.6390   22.7850    4.1450 C   0  0  0  0  0  0  0  0  0  0  0  0
   18.0750   21.9570    2.4330 C   0  0  0  0  0  0  0  0  0  0  0  0
   15.3300   18.7340    3.1450 C   0  0  0  0  0  0  0  0  0  0  0  0
   16.3860   21.1540    0.7720 C   0  0  0  0  0  0  0  0  0  0  0  0
   15.6750   20.0430    1.0480 N   0  0  0  0  0  0  0  0  0  0  0  0
   15.9260   22.0770    0.1040 O   0  0  0  0  0  0  0  0  0  0  0  0
   15.6330   20.0040    4.4020 S   0  5  0  0  0  0  0  0  0  0  0  0
   14.3460   20.1380   -0.6020 H   0  0  0  0  0  0  0  0  0  0  0  0
   14.0230   18.8270    0.5070 H   0  0  0  0  0  0  0  0  0  0  0  0
   13.6160   20.4670    0.9800 H   0  0  0  0  0  0  0  0  0  0  0  0
   16.0580   18.0670    1.2690 H   0  0  0  0  0  0  0  0  0  0  0  0
   17.2260   18.9770    2.1340 H   0  0  0  0  0  0  0  0  0  0  0  0
   18.6390   20.1160   -0.3530 H   0  0  0  0  0  0  0  0  0  0  0  0
   20.9460   20.2970    0.4750 H   0  0  0  0  0  0  0  0  0  0  0  0
   21.4390   21.4820    2.5220 H   0  0  0  0  0  0  0  0  0  0  0  0
   19.1190   23.6930    4.3380 H   0  0  0  0  0  0  0  0  0  0  0  0
   19.1690   22.1390    4.8860 H   0  0  0  0  0  0  0  0  0  0  0  0
   17.2690   22.4260    2.9800 H   0  0  0  0  0  0  0  0  0  0  0  0
   15.5770   17.7710    3.5790 H   0  0  0  0  0  0  0  0  0  0  0  0
   14.2640   18.7090    2.9210 H   0  0  0  0  0  0  0  0  0  0  0  0
  1 12  1  0  0  0  0
  1 15  1  0  0  0  0
  1 16  1  0  0  0  0
  1 17  1  0  0  0  0
  2 10  1  0  0  0  0
  2 12  1  0  0  0  0
  2 18  1  0  0  0  0
  2 19  1  0  0  0  0
  3  4  2  0  0  0  0
  3  9  1  0  0  0  0
  3 11  1  0  0  0  0
  4  5  1  0  0  0  0
  4 20  1  0  0  0  0
  5  6  2  0  0  0  0
  5 21  1  0  0  0  0
  6  7  1  0  0  0  0
  6 22  1  0  0  0  0
  7  8  1  0  0  0  0
  7  9  2  0  0  0  0
  8 23  1  0  0  0  0
  8 24  1  0  0  0  0
  9 25  1  0  0  0  0
 10 14  1  0  0  0  0
 10 26  1  0  0  0  0
 10 27  1  0  0  0  0
 11 12  1  0  0  0  0
 11 13  2  0  0  0  0
M  CHG  1  14  -1
M  END
>  <COMPND>
    title: molecule 1

$$$$
8BJN_ligand0.pdb
 OpenBabel06042612053D

 27 27  0  0  0  0  0  0  0  0999 V2000
   13.8750   19.2480    0.5630 C   0  0  0  0  0  0  0  0  0  0  0  0
   19.4430   20.5940    1.9590 C   0  0  0  0  0  0  0  0  0  0  0  0
   18.2510   20.2550    1.3390 C   0  0  0  0  0  0  0  0  0  0  0  0
   15.6490   18.4990    2.1390 C   0  0  0  0  0  0  0  0  0  0  0  0
   14.8980   18.4540    3.4510 C   0  0  0  0  0  0  0  0  0  0  0  0
   15.7700   20.7010    0.9550 C   0  0  0  0  0  0  0  0  0  0  0  0
   17.1020   20.9940    1.5890 C   0  0  0  0  0  0  0  0  0  0  0  0
   17.1760   22.0900    2.4380 C   0  0  0  0  0  0  0  0  0  0  0  0
   18.3600   22.4200    3.0680 C   0  0  0  0  0  0  0  0  0  0  0  0
   19.5180   21.6690    2.8330 C   0  0  0  0  0  0  0  0  0  0  0  0
   20.7880   22.0350    3.4930 C   0  0  0  0  0  0  0  0  0  0  0  0
   15.1520   19.5300    1.2130 N   0  0  0  0  0  0  0  0  0  0  0  0
   15.2490   21.5600    0.2400 O   0  0  0  0  0  0  0  0  0  0  0  0
   15.3320   19.8160    4.5640 S   0  5  0  0  0  0  0  0  0  0  0  0
   20.9840   19.5430    1.5900 Br  0  0  0  0  0  0  0  0  0  0  0  0
   13.9300   19.4080   -0.5150 H   0  0  0  0  0  0  0  0  0  0  0  0
   13.5530   18.2180    0.7140 H   0  0  0  0  0  0  0  0  0  0  0  0
   13.0960   19.8930    0.9700 H   0  0  0  0  0  0  0  0  0  0  0  0
   18.2200   19.4150    0.6590 H   0  0  0  0  0  0  0  0  0  0  0  0
   15.4820   17.5440    1.6420 H   0  0  0  0  0  0  0  0  0  0  0  0
   16.7210   18.5030    2.2990 H   0  0  0  0  0  0  0  0  0  0  0  0
   15.1000   17.5150    3.9600 H   0  0  0  0  0  0  0  0  0  0  0  0
   13.8210   18.4760    3.2800 H   0  0  0  0  0  0  0  0  0  0  0  0
   16.2880   22.6680    2.6380 H   0  0  0  0  0  0  0  0  0  0  0  0
   18.3390   23.2290    3.7760 H   0  0  0  0  0  0  0  0  0  0  0  0
   21.2000   21.1020    3.8710 H   0  0  0  0  0  0  0  0  0  0  0  0
   21.4850   22.4120    2.7540 H   0  0  0  0  0  0  0  0  0  0  0  0
  1 12  1  0  0  0  0
  1 16  1  0  0  0  0
  1 17  1  0  0  0  0
  1 18  1  0  0  0  0
  2  3  2  0  0  0  0
  2 10  1  0  0  0  0
  2 15  1  0  0  0  0
  3  7  1  0  0  0  0
  3 19  1  0  0  0  0
  4  5  1  0  0  0  0
  4 12  1  0  0  0  0
  4 20  1  0  0  0  0
  4 21  1  0  0  0  0
  5 14  1  0  0  0  0
  5 22  1  0  0  0  0
  5 23  1  0  0  0  0
  6  7  1  0  0  0  0
  6 12  1  0  0  0  0
  6 13  2  0  0  0  0
  7  8  2  0  0  0  0
  8  9  1  0  0  0  0
  8 24  1  0  0  0  0
  9 10  2  0  0  0  0
  9 25  1  0  0  0  0
 10 11  1  0  0  0  0
 11 26  1  0  0  0  0
 11 27  1  0  0  0  0
M  CHG  1  14  -1
M  END
>  <COMPND>
    title: molecule 1

$$$$
8BM5_ligand0.pdb
 OpenBabel06042612053D

 28 28  0  0  0  0  0  0  0  0999 V2000
  -15.1900   18.9470   -1.1400 N   0  0  0  0  0  0  0  0  0  0  0  0
  -15.7240   18.1610   -2.2700 C   0  0  0  0  0  0  0  0  0  0  0  0
  -14.9200   18.2610   -3.5490 C   0  0  0  0  0  0  0  0  0  0  0  0
  -17.4050   20.6230   -1.3980 C   0  0  0  0  0  0  0  0  0  0  0  0
  -19.6510   20.5410   -2.2110 C   0  0  0  0  0  0  0  0  0  0  0  0
  -20.4310   22.1750   -3.9230 C   0  0  0  0  0  0  0  0  0  0  0  0
  -18.1330   22.2130   -3.0200 C   0  0  0  0  0  0  0  0  0  0  0  0
  -17.1430   21.7240   -2.1940 C   0  0  0  0  0  0  0  0  0  0  0  0
  -13.7390   19.1310   -1.1190 C   0  0  0  0  0  0  0  0  0  0  0  0
  -18.6580   20.0330   -1.3930 C   0  0  0  0  0  0  0  0  0  0  0  0
  -19.3910   21.6280   -3.0390 C   0  0  0  0  0  0  0  0  0  0  0  0
  -15.3180   21.1370    0.0010 O   0  0  0  0  0  0  0  0  0  0  0  0
  -16.7740   19.2800    0.7120 O   0  0  0  0  0  0  0  0  0  0  0  0
  -15.4780   19.6080   -4.6200 S   0  5  0  0  0  0  0  0  0  0  0  0
  -16.1370   20.0130   -0.3400 S   0  0  0  0  0  0  0  0  0  0  0  0
  -16.7930   18.2960   -2.3870 H   0  0  0  0  0  0  0  0  0  0  0  0
  -15.6460   17.1210   -1.9520 H   0  0  0  0  0  0  0  0  0  0  0  0
  -15.0870   17.3470   -4.1130 H   0  0  0  0  0  0  0  0  0  0  0  0
  -13.8380   18.3060   -3.4550 H   0  0  0  0  0  0  0  0  0  0  0  0
  -20.6270   20.0790   -2.1980 H   0  0  0  0  0  0  0  0  0  0  0  0
  -20.9500   22.9400   -3.3440 H   0  0  0  0  0  0  0  0  0  0  0  0
  -19.9070   22.7170   -4.7120 H   0  0  0  0  0  0  0  0  0  0  0  0
  -17.9040   23.0300   -3.6820 H   0  0  0  0  0  0  0  0  0  0  0  0
  -16.1690   22.1880   -2.1960 H   0  0  0  0  0  0  0  0  0  0  0  0
  -13.4280   19.2710   -0.0850 H   0  0  0  0  0  0  0  0  0  0  0  0
  -13.1920   18.2620   -1.4680 H   0  0  0  0  0  0  0  0  0  0  0  0
  -13.4630   20.0180   -1.6550 H   0  0  0  0  0  0  0  0  0  0  0  0
  -18.8670   19.1830   -0.7610 H   0  0  0  0  0  0  0  0  0  0  0  0
  1  2  1  0  0  0  0
  1  9  1  0  0  0  0
  1 15  1  0  0  0  0
  2  3  1  0  0  0  0
  2 16  1  0  0  0  0
  2 17  1  0  0  0  0
  3 14  1  0  0  0  0
  3 18  1  0  0  0  0
  3 19  1  0  0  0  0
  4  8  2  0  0  0  0
  4 10  1  0  0  0  0
  4 15  1  0  0  0  0
  5 10  2  0  0  0  0
  5 11  1  0  0  0  0
  5 20  1  0  0  0  0
  6 11  1  0  0  0  0
  6 21  1  0  0  0  0
  6 22  1  0  0  0  0
  7  8  1  0  0  0  0
  7 11  2  0  0  0  0
  7 23  1  0  0  0  0
  8 24  1  0  0  0  0
  9 25  1  0  0  0  0
  9 26  1  0  0  0  0
  9 27  1  0  0  0  0
 10 28  1  0  0  0  0
 12 15  2  0  0  0  0
 13 15  2  0  0  0  0
M  CHG  1  14  -1
M  END
>  <COMPND>
    title: molecule 1

$$$$
8BWE_ligand0.pdb
 OpenBabel06042612053D

 39 40  0  0  0  0  0  0  0  0999 V2000
   26.8270   11.0850   20.5750 C   0  0  0  0  0  0  0  0  0  0  0  0
   27.1880   10.8520   21.8750 C   0  0  0  0  0  0  0  0  0  0  0  0
   26.5030   11.3700   22.9480 C   0  0  0  0  0  0  0  0  0  0  0  0
   25.7310   11.8910   20.3410 C   0  0  0  0  0  0  0  0  0  0  0  0
   25.0220   12.4380   21.3980 C   0  0  0  0  0  0  0  0  0  0  0  0
   25.3980   12.1830   22.7150 C   0  0  0  0  0  0  0  0  0  0  0  0
   23.0810   15.1320   28.3480 C   0  0  0  0  0  0  0  0  0  0  0  0
   24.0010   16.1650   28.4150 C   0  0  0  0  0  0  0  0  0  0  0  0
   21.6160   12.7610   27.4950 C   0  0  0  0  0  0  0  0  0  0  0  0
   23.4110   11.2700   27.0070 O   0  0  0  0  0  0  0  0  0  0  0  0
   22.6400   12.1440   26.5660 C   0  0  0  0  0  0  0  0  0  0  0  0
   21.2370   14.0900   27.1480 O   0  0  0  0  0  0  0  0  0  0  0  0
   22.1920   15.0680   27.2840 C   0  0  0  0  0  0  0  0  0  0  0  0
   24.0510   17.1290   27.4270 C   0  0  0  0  0  0  0  0  0  0  0  0
   23.1710   17.0660   26.3530 C   0  0  0  0  0  0  0  0  0  0  0  0
   22.2300   16.0340   26.2630 C   0  0  0  0  0  0  0  0  0  0  0  0
   21.0650   15.9830   24.8810 P   0  3  0  0  0  0  0  0  0  0  0  0
   21.4850   17.0440   23.8350 O   0  5  0  0  0  0  0  0  0  0  0  0
   21.0740   14.5560   24.2520 O   0  0  0  0  0  0  0  0  0  0  0  0
   19.6540   16.3100   25.4190 O   0  0  0  0  0  0  0  0  0  0  0  0
   22.6020   12.5350   25.2890 N   0  0  0  0  0  0  0  0  0  0  0  0
   23.3860   11.9790   24.1960 C   0  0  0  0  0  0  0  0  0  0  0  0
   24.6400   12.7830   23.8750 C   0  0  0  0  0  0  0  0  0  0  0  0
   24.2870   14.0760   23.6380 F   0  0  0  0  0  0  0  0  0  0  0  0
   25.4100   12.8030   24.9910 F   0  0  0  0  0  0  0  0  0  0  0  0
   28.2650   10.0590   22.1250 F   0  0  0  0  0  0  0  0  0  0  0  0
   27.3900   10.6540   19.7610 H   0  0  0  0  0  0  0  0  0  0  0  0
   26.8320   11.1450   23.9520 H   0  0  0  0  0  0  0  0  0  0  0  0
   25.4210   12.0970   19.3270 H   0  0  0  0  0  0  0  0  0  0  0  0
   24.1660   13.0650   21.1950 H   0  0  0  0  0  0  0  0  0  0  0  0
   23.0580   14.4080   29.1480 H   0  0  0  0  0  0  0  0  0  0  0  0
   24.6810   16.2210   29.2520 H   0  0  0  0  0  0  0  0  0  0  0  0
   21.9550   12.6780   28.5250 H   0  0  0  0  0  0  0  0  0  0  0  0
   20.7180   12.1500   27.4150 H   0  0  0  0  0  0  0  0  0  0  0  0
   24.7530   17.9440   27.5090 H   0  0  0  0  0  0  0  0  0  0  0  0
   23.1920   17.8510   25.6200 H   0  0  0  0  0  0  0  0  0  0  0  0
   21.9560   13.2810   25.0360 H   0  0  0  0  0  0  0  0  0  0  0  0
   22.7540   11.9030   23.3170 H   0  0  0  0  0  0  0  0  0  0  0  0
   23.6690   10.9500   24.4290 H   0  0  0  0  0  0  0  0  0  0  0  0
  1  2  2  0  0  0  0
  1  4  1  0  0  0  0
  1 27  1  0  0  0  0
  2  3  1  0  0  0  0
  2 26  1  0  0  0  0
  3  6  2  0  0  0  0
  3 28  1  0  0  0  0
  4  5  2  0  0  0  0
  4 29  1  0  0  0  0
  5  6  1  0  0  0  0
  5 30  1  0  0  0  0
  6 23  1  0  0  0  0
  7  8  2  0  0  0  0
  7 13  1  0  0  0  0
  7 31  1  0  0  0  0
  8 14  1  0  0  0  0
  8 32  1  0  0  0  0
  9 11  1  0  0  0  0
  9 12  1  0  0  0  0
  9 33  1  0  0  0  0
  9 34  1  0  0  0  0
 10 11  2  0  0  0  0
 11 21  1  0  0  0  0
 12 13  1  0  0  0  0
 13 16  2  0  0  0  0
 14 15  2  0  0  0  0
 14 35  1  0  0  0  0
 15 16  1  0  0  0  0
 15 36  1  0  0  0  0
 16 17  1  0  0  0  0
 17 18  1  0  0  0  0
 17 19  2  0  0  0  0
 17 20  2  0  0  0  0
 21 22  1  0  0  0  0
 21 37  1  0  0  0  0
 22 23  1  0  0  0  0
 22 38  1  0  0  0  0
 22 39  1  0  0  0  0
 23 24  1  0  0  0  0
 23 25  1  0  0  0  0
M  CHG  2  17   1  18  -1
M  END
>  <COMPND>
    title: molecule 1

$$$$
8BWH_ligand0.pdb
 OpenBabel06042612053D

 39 40  0  0  0  0  0  0  0  0999 V2000
   23.4080   11.3120   27.1480 O   0  0  0  0  0  0  0  0  0  0  0  0
   26.8650   10.9360   20.8040 C   0  0  0  0  0  0  0  0  0  0  0  0
   25.7950   11.7790   20.5870 C   0  0  0  0  0  0  0  0  0  0  0  0
   25.1340   12.2950   21.6730 C   0  0  0  0  0  0  0  0  0  0  0  0
   27.2590   10.6260   22.0880 C   0  0  0  0  0  0  0  0  0  0  0  0
   26.5780   11.1590   23.1720 C   0  0  0  0  0  0  0  0  0  0  0  0
   25.4940   12.0150   22.9800 C   0  0  0  0  0  0  0  0  0  0  0  0
   24.7510   12.5970   24.1620 C   0  0  0  0  0  0  0  0  0  0  0  0
   22.6070   12.1120   26.6700 C   0  0  0  0  0  0  0  0  0  0  0  0
   22.1120   15.0130   27.3070 C   0  0  0  0  0  0  0  0  0  0  0  0
   21.5240   12.6820   27.5510 C   0  0  0  0  0  0  0  0  0  0  0  0
   22.6070   12.4900   25.3950 N   0  0  0  0  0  0  0  0  0  0  0  0
   23.0220   15.0810   28.3580 C   0  0  0  0  0  0  0  0  0  0  0  0
   23.4390   11.8630   24.3770 C   0  0  0  0  0  0  0  0  0  0  0  0
   22.1310   15.9790   26.2930 C   0  0  0  0  0  0  0  0  0  0  0  0
   23.0630   17.0110   26.3630 C   0  0  0  0  0  0  0  0  0  0  0  0
   23.9690   17.0680   27.4100 C   0  0  0  0  0  0  0  0  0  0  0  0
   23.9470   16.1100   28.3970 C   0  0  0  0  0  0  0  0  0  0  0  0
   21.1640   14.0170   27.1960 O   0  0  0  0  0  0  0  0  0  0  0  0
   20.9360   15.9130   24.9370 P   0  3  0  0  0  0  0  0  0  0  0  0
   19.5780   16.2320   25.5310 O   0  5  0  0  0  0  0  0  0  0  0  0
   21.3350   16.9390   23.9090 O   0  0  0  0  0  0  0  0  0  0  0  0
   20.9630   14.5380   24.3250 O   0  0  0  0  0  0  0  0  0  0  0  0
   25.5140   12.5320   25.2830 F   0  0  0  0  0  0  0  0  0  0  0  0
   24.5040   13.9170   23.9590 F   0  0  0  0  0  0  0  0  0  0  0  0
   24.0800   13.1160   21.4450 F   0  0  0  0  0  0  0  0  0  0  0  0
   27.3980   10.5160   19.9640 H   0  0  0  0  0  0  0  0  0  0  0  0
   25.4800   12.0240   19.5830 H   0  0  0  0  0  0  0  0  0  0  0  0
   28.0970    9.9640   22.2500 H   0  0  0  0  0  0  0  0  0  0  0  0
   26.8990   10.9030   24.1700 H   0  0  0  0  0  0  0  0  0  0  0  0
   21.8190   12.6120   28.5960 H   0  0  0  0  0  0  0  0  0  0  0  0
   20.6400   12.0570   27.4310 H   0  0  0  0  0  0  0  0  0  0  0  0
   21.9480   13.2000   25.0900 H   0  0  0  0  0  0  0  0  0  0  0  0
   23.0130   14.3540   29.1550 H   0  0  0  0  0  0  0  0  0  0  0  0
   23.6220   10.8110   24.6070 H   0  0  0  0  0  0  0  0  0  0  0  0
   22.8570   11.8670   23.4560 H   0  0  0  0  0  0  0  0  0  0  0  0
   23.1020   17.7700   25.6010 H   0  0  0  0  0  0  0  0  0  0  0  0
   24.6720   17.8810   27.4790 H   0  0  0  0  0  0  0  0  0  0  0  0
   24.6470   16.1700   29.2170 H   0  0  0  0  0  0  0  0  0  0  0  0
  1  9  2  0  0  0  0
  2  3  2  0  0  0  0
  2  5  1  0  0  0  0
  2 27  1  0  0  0  0
  3  4  1  0  0  0  0
  3 28  1  0  0  0  0
  4  7  2  0  0  0  0
  4 26  1  0  0  0  0
  5  6  2  0  0  0  0
  5 29  1  0  0  0  0
  6  7  1  0  0  0  0
  6 30  1  0  0  0  0
  7  8  1  0  0  0  0
  8 14  1  0  0  0  0
  8 24  1  0  0  0  0
  8 25  1  0  0  0  0
  9 11  1  0  0  0  0
  9 12  1  0  0  0  0
 10 13  2  0  0  0  0
 10 15  1  0  0  0  0
 10 19  1  0  0  0  0
 11 19  1  0  0  0  0
 11 31  1  0  0  0  0
 11 32  1  0  0  0  0
 12 14  1  0  0  0  0
 12 33  1  0  0  0  0
 13 18  1  0  0  0  0
 13 34  1  0  0  0  0
 14 35  1  0  0  0  0
 14 36  1  0  0  0  0
 15 16  2  0  0  0  0
 15 20  1  0  0  0  0
 16 17  1  0  0  0  0
 16 37  1  0  0  0  0
 17 18  2  0  0  0  0
 17 38  1  0  0  0  0
 18 39  1  0  0  0  0
 20 21  1  0  0  0  0
 20 22  2  0  0  0  0
 20 23  2  0  0  0  0
M  CHG  2  20   1  21  -1
M  END
>  <COMPND>
    title: molecule 1

$$$$
8BWJ_ligand0.pdb
 OpenBabel06042612053D

 52 54  0  0  0  0  0  0  0  0999 V2000
  -22.5070   20.5460    1.6920 C   0  0  0  0  0  0  0  0  0  0  0  0
  -27.2930   18.7500   -1.1990 C   0  0  0  0  0  0  0  0  0  0  0  0
  -24.8010   20.5620    0.9430 C   0  0  0  0  0  0  0  0  0  0  0  0
  -23.5230   19.9950    0.9280 C   0  0  0  0  0  0  0  0  0  0  0  0
  -22.7440   21.6660    2.4730 C   0  0  0  0  0  0  0  0  0  0  0  0
  -25.9030   18.8720   -0.5580 C   0  0  0  0  0  0  0  0  0  0  0  0
  -24.8410   19.0630   -1.6540 C   0  0  0  0  0  0  0  0  0  0  0  0
  -23.6900   22.2010   -3.3330 C   0  0  0  0  0  0  0  0  0  0  0  0
  -23.9020   20.8310   -3.2730 C   0  0  0  0  0  0  0  0  0  0  0  0
  -20.3610   16.1250   -6.8930 C   0  0  0  0  0  0  0  0  0  0  0  0
  -20.6060   17.6040   -6.7530 C   0  0  0  0  0  0  0  0  0  0  0  0
  -21.4850   18.1540   -5.7890 C   0  0  0  0  0  0  0  0  0  0  0  0
  -21.5000   19.6480   -5.9200 C   0  0  0  0  0  0  0  0  0  0  0  0
  -22.3190   20.5330   -5.0100 C   0  0  0  0  0  0  0  0  0  0  0  0
  -22.0810   21.8930   -5.0620 C   0  0  0  0  0  0  0  0  0  0  0  0
  -22.7860   22.7400   -4.2320 C   0  0  0  0  0  0  0  0  0  0  0  0
  -21.6180   22.2670    3.3100 C   0  0  0  0  0  0  0  0  0  0  0  0
  -24.0010   22.2270    2.4880 C   0  0  0  0  0  0  0  0  0  0  0  0
  -25.0170   21.6760    1.7250 C   0  0  0  0  0  0  0  0  0  0  0  0
  -25.5570   17.6610    0.3140 C   0  0  0  0  0  0  0  0  0  0  0  0
  -23.1890   19.9700   -4.0860 C   0  0  0  0  0  0  0  0  0  0  0  0
  -20.6460   20.0920   -6.9640 C   0  0  0  0  0  0  0  0  0  0  0  0
  -20.9070   23.1560    2.5830 F   0  0  0  0  0  0  0  0  0  0  0  0
  -20.8300   21.2430    3.7510 F   0  0  0  0  0  0  0  0  0  0  0  0
  -22.1050   22.9230    4.4050 F   0  0  0  0  0  0  0  0  0  0  0  0
  -19.8050   15.6600   -7.9120 N   0  3  0  0  0  0  0  0  0  0  0  0
  -20.8310   15.2760   -5.8340 N   0  0  0  0  0  0  0  0  0  0  0  0
  -24.8580   20.3860   -2.2600 N   0  0  0  0  0  0  0  0  0  0  0  0
  -25.9070   20.0690    0.2080 O   0  0  0  0  0  0  0  0  0  0  0  0
  -24.0640   18.2040   -1.9440 O   0  0  0  0  0  0  0  0  0  0  0  0
  -19.9240   18.7840   -7.6260 S   0  0  0  0  0  0  0  0  0  0  0  0
  -21.5250   20.0970    1.6640 H   0  0  0  0  0  0  0  0  0  0  0  0
  -28.0170   18.5280   -0.4230 H   0  0  0  0  0  0  0  0  0  0  0  0
  -27.5950   19.6630   -1.7110 H   0  0  0  0  0  0  0  0  0  0  0  0
  -27.3320   17.9320   -1.9200 H   0  0  0  0  0  0  0  0  0  0  0  0
  -23.2440   19.1410    0.3410 H   0  0  0  0  0  0  0  0  0  0  0  0
  -24.2150   22.8830   -2.6960 H   0  0  0  0  0  0  0  0  0  0  0  0
  -22.0520   17.5950   -5.0630 H   0  0  0  0  0  0  0  0  0  0  0  0
  -21.3680   22.3200   -5.7490 H   0  0  0  0  0  0  0  0  0  0  0  0
  -22.6220   23.8070   -4.2740 H   0  0  0  0  0  0  0  0  0  0  0  0
  -24.1780   23.0790    3.1060 H   0  0  0  0  0  0  0  0  0  0  0  0
  -25.9970   22.1290    1.7480 H   0  0  0  0  0  0  0  0  0  0  0  0
  -24.5140   17.5540    0.5980 H   0  0  0  0  0  0  0  0  0  0  0  0
  -26.1350   17.6830    1.2380 H   0  0  0  0  0  0  0  0  0  0  0  0
  -25.8240   16.7360   -0.1980 H   0  0  0  0  0  0  0  0  0  0  0  0
  -23.3520   18.9070   -4.0640 H   0  0  0  0  0  0  0  0  0  0  0  0
  -20.4260   21.0870   -7.3210 H   0  0  0  0  0  0  0  0  0  0  0  0
  -19.6280   14.6570   -7.9820 H   0  0  0  0  0  0  0  0  0  0  0  0
  -19.4690   16.2770   -8.6430 H   0  0  0  0  0  0  0  0  0  0  0  0
  -20.6660   14.2700   -5.8910 H   0  0  0  0  0  0  0  0  0  0  0  0
  -21.3720   15.6430   -5.0580 H   0  0  0  0  0  0  0  0  0  0  0  0
  -25.4940   21.0810   -1.8860 H   0  0  0  0  0  0  0  0  0  0  0  0
  1  4  2  0  0  0  0
  1  5  1  0  0  0  0
  1 32  1  0  0  0  0
  2  6  1  0  0  0  0
  2 33  1  0  0  0  0
  2 34  1  0  0  0  0
  2 35  1  0  0  0  0
  3  4  1  0  0  0  0
  3 19  2  0  0  0  0
  3 29  1  0  0  0  0
  4 36  1  0  0  0  0
  5 17  1  0  0  0  0
  5 18  2  0  0  0  0
  6  7  1  0  0  0  0
  6 20  1  0  0  0  0
  6 29  1  0  0  0  0
  7 28  1  0  0  0  0
  7 30  2  0  0  0  0
  8  9  2  0  0  0  0
  8 16  1  0  0  0  0
  8 37  1  0  0  0  0
  9 21  1  0  0  0  0
  9 28  1  0  0  0  0
 10 11  1  0  0  0  0
 10 26  2  0  0  0  0
 10 27  1  0  0  0  0
 11 12  2  0  0  0  0
 11 31  1  0  0  0  0
 12 13  1  0  0  0  0
 12 38  1  0  0  0  0
 13 14  1  0  0  0  0
 13 22  2  0  0  0  0
 14 15  1  0  0  0  0
 14 21  2  0  0  0  0
 15 16  2  0  0  0  0
 15 39  1  0  0  0  0
 16 40  1  0  0  0  0
 17 23  1  0  0  0  0
 17 24  1  0  0  0  0
 17 25  1  0  0  0  0
 18 19  1  0  0  0  0
 18 41  1  0  0  0  0
 19 42  1  0  0  0  0
 20 43  1  0  0  0  0
 20 44  1  0  0  0  0
 20 45  1  0  0  0  0
 21 46  1  0  0  0  0
 22 31  1  0  0  0  0
 22 47  1  0  0  0  0
 26 48  1  0  0  0  0
 26 49  1  0  0  0  0
 27 50  1  0  0  0  0
 27 51  1  0  0  0  0
 28 52  1  0  0  0  0
M  CHG  1  26   1
M  END
>  <COMPND>
    title: molecule 1

$$$$
8BWX_ligand0.pdb
 OpenBabel06042612053D

 59 62  0  0  1  0  0  0  0  0999 V2000
  -17.1650   22.2130   -2.6290 C   0  0  0  0  0  0  0  0  0  0  0  0
  -18.4330   21.7000   -2.5960 C   0  0  0  0  0  0  0  0  0  0  0  0
  -18.7410   20.5730   -1.8470 C   0  0  0  0  0  0  0  0  0  0  0  0
  -13.4660   16.7520   -0.7150 C   0  0  1  0  0  0  0  0  0  0  0  0
  -13.0220   18.0340   -0.0190 C   0  0  0  0  0  0  0  0  0  0  0  0
  -14.1090   18.4760    0.9660 C   0  0  0  0  0  0  0  0  0  0  0  0
  -15.4660   18.6710    0.3000 C   0  0  1  0  0  0  0  0  0  0  0  0
  -15.8630   17.4890   -0.5760 C   0  0  0  0  0  0  0  0  0  0  0  0
  -14.7400   17.0380   -1.5090 C   0  0  0  0  0  0  0  0  0  0  0  0
  -16.4290   20.4600   -1.1440 C   0  0  0  0  0  0  0  0  0  0  0  0
  -16.1550   21.5920   -1.9100 C   0  0  0  0  0  0  0  0  0  0  0  0
  -17.7250   19.9650   -1.1160 C   0  0  0  0  0  0  0  0  0  0  0  0
  -16.5260   18.9070    1.4240 C   0  0  0  0  0  0  0  0  0  0  0  0
  -17.3370   20.7390    3.0800 C   0  0  0  0  0  0  0  0  0  0  0  0
  -17.9900   19.8950    3.9740 C   0  0  0  0  0  0  0  0  0  0  0  0
  -18.7730   20.4840    4.9650 C   0  0  0  0  0  0  0  0  0  0  0  0
  -18.9340   21.8430    5.0750 C   0  0  0  0  0  0  0  0  0  0  0  0
  -18.2780   22.6780    4.1800 C   0  0  0  0  0  0  0  0  0  0  0  0
  -17.4860   22.1140    3.1870 C   0  0  0  0  0  0  0  0  0  0  0  0
  -19.5070   19.5910    5.9530 C   0  0  0  0  0  0  0  0  0  0  0  0
  -20.2220   20.0320    7.0990 C   0  0  0  0  0  0  0  0  0  0  0  0
  -20.3170   17.5450    6.8490 C   0  0  0  0  0  0  0  0  0  0  0  0
  -19.5510   18.0960    5.7880 C   0  0  0  0  0  0  0  0  0  0  0  0
  -20.5580   16.0790    7.0310 C   0  0  0  0  0  0  0  0  0  0  0  0
  -12.4660   16.1910   -1.5800 N   0  3  0  0  0  0  0  0  0  0  0  0
  -16.4610   20.2410    2.0090 N   0  0  0  0  0  0  0  0  0  0  0  0
  -20.0980   15.1720    5.9900 N   0  3  0  0  0  0  0  0  0  0  0  0
  -21.0890   15.7390    8.1230 N   0  0  0  0  0  0  0  0  0  0  0  0
  -15.3140   19.8860   -0.4450 O   0  0  0  0  0  0  0  0  0  0  0  0
  -17.3370   18.0790    1.7380 O   0  0  0  0  0  0  0  0  0  0  0  0
  -20.8570   18.7040    7.8310 S   0  0  0  0  0  0  0  0  0  0  0  0
  -19.6990   22.5280   -3.5150 Cl  0  0  0  0  0  0  0  0  0  0  0  0
  -16.9780   23.0800   -3.2250 H   0  0  0  0  0  0  0  0  0  0  0  0
  -19.7480   20.1810   -1.8240 H   0  0  0  0  0  0  0  0  0  0  0  0
  -13.6750   15.9910    0.0380 H   0  0  0  0  0  0  0  0  0  0  0  0
  -12.8730   18.8310   -0.7460 H   0  0  0  0  0  0  0  0  0  0  0  0
  -12.0810   17.8850    0.5110 H   0  0  0  0  0  0  0  0  0  0  0  0
  -13.7910   19.3950    1.4620 H   0  0  0  0  0  0  0  0  0  0  0  0
  -14.1870   17.7240    1.7540 H   0  0  0  0  0  0  0  0  0  0  0  0
  -16.7530   17.6350   -1.1780 H   0  0  0  0  0  0  0  0  0  0  0  0
  -16.0820   16.6330    0.0590 H   0  0  0  0  0  0  0  0  0  0  0  0
  -15.0590   16.1520   -2.0530 H   0  0  0  0  0  0  0  0  0  0  0  0
  -14.5540   17.8090   -2.2580 H   0  0  0  0  0  0  0  0  0  0  0  0
  -15.1850   22.0170   -1.8710 H   0  0  0  0  0  0  0  0  0  0  0  0
  -18.0370   19.1030   -0.5590 H   0  0  0  0  0  0  0  0  0  0  0  0
  -17.8660   18.8280    3.9280 H   0  0  0  0  0  0  0  0  0  0  0  0
  -19.5470   22.2800    5.8470 H   0  0  0  0  0  0  0  0  0  0  0  0
  -18.3820   23.7500    4.2550 H   0  0  0  0  0  0  0  0  0  0  0  0
  -16.9770   22.7730    2.5080 H   0  0  0  0  0  0  0  0  0  0  0  0
  -20.3850   21.0230    7.4960 H   0  0  0  0  0  0  0  0  0  0  0  0
  -19.0880   17.5400    4.9900 H   0  0  0  0  0  0  0  0  0  0  0  0
  -12.7830   15.3240   -1.9920 H   0  0  0  0  0  0  0  0  0  0  0  0
  -12.2520   16.8430   -2.3200 H   0  0  0  0  0  0  0  0  0  0  0  0
  -11.6270   16.0040   -1.0520 H   0  0  0  0  0  0  0  0  0  0  0  0
  -15.8030   20.9010    1.6100 H   0  0  0  0  0  0  0  0  0  0  0  0
  -20.2750   14.1670    6.0800 H   0  0  0  0  0  0  0  0  0  0  0  0
  -19.5970   15.5170    5.1810 H   0  0  0  0  0  0  0  0  0  0  0  0
  -21.2810   14.7540    8.2920 H   0  0  0  0  0  0  0  0  0  0  0  0
  -21.3620   16.4250    8.8230 H   0  0  0  0  0  0  0  0  0  0  0  0
  1  2  2  0  0  0  0
  1 11  1  0  0  0  0
  1 33  1  0  0  0  0
  2  3  1  0  0  0  0
  2 32  1  0  0  0  0
  3 12  2  0  0  0  0
  3 34  1  0  0  0  0
  4  5  1  0  0  0  0
  4  9  1  0  0  0  0
  4 25  1  0  0  0  0
  4 35  1  1  0  0  0
  5  6  1  0  0  0  0
  5 36  1  0  0  0  0
  5 37  1  0  0  0  0
  6  7  1  0  0  0  0
  6 38  1  0  0  0  0
  6 39  1  0  0  0  0
  7  8  1  0  0  0  0
  7 13  1  1  0  0  0
  7 29  1  0  0  0  0
  8  9  1  0  0  0  0
  8 40  1  0  0  0  0
  8 41  1  0  0  0  0
  9 42  1  0  0  0  0
  9 43  1  0  0  0  0
 10 11  2  0  0  0  0
 10 12  1  0  0  0  0
 10 29  1  0  0  0  0
 11 44  1  0  0  0  0
 12 45  1  0  0  0  0
 13 26  1  0  0  0  0
 13 30  2  0  0  0  0
 14 15  2  0  0  0  0
 14 19  1  0  0  0  0
 14 26  1  0  0  0  0
 15 16  1  0  0  0  0
 15 46  1  0  0  0  0
 16 17  2  0  0  0  0
 16 20  1  0  0  0  0
 17 18  1  0  0  0  0
 17 47  1  0  0  0  0
 18 19  2  0  0  0  0
 18 48  1  0  0  0  0
 19 49  1  0  0  0  0
 20 21  2  0  0  0  0
 20 23  1  0  0  0  0
 21 31  1  0  0  0  0
 21 50  1  0  0  0  0
 22 23  2  0  0  0  0
 22 24  1  0  0  0  0
 22 31  1  0  0  0  0
 23 51  1  0  0  0  0
 24 27  2  0  0  0  0
 24 28  1  0  0  0  0
 25 52  1  0  0  0  0
 25 53  1  0  0  0  0
 25 54  1  0  0  0  0
 26 55  1  0  0  0  0
 27 56  1  0  0  0  0
 27 57  1  0  0  0  0
 28 58  1  0  0  0  0
 28 59  1  0  0  0  0
M  CHG  2  25   1  27   1
M  END
>  <COMPND>
    title: molecule 1

$$$$
8BWZ_ligand0.pdb
 OpenBabel06042612053D

 54 56  0  0  0  0  0  0  0  0999 V2000
  -17.2340  -22.3230   -3.3420 C   0  0  0  0  0  0  0  0  0  0  0  0
  -17.0130  -20.9510   -3.3090 C   0  0  0  0  0  0  0  0  0  0  0  0
  -16.1000  -19.1620   -1.7060 C   0  0  0  0  0  0  0  0  0  0  0  0
  -13.6690  -18.7450   -1.3650 C   0  0  0  0  0  0  0  0  0  0  0  0
  -17.3280  -19.6290    0.9290 C   0  0  0  0  0  0  0  0  0  0  0  0
  -18.4330  -20.0860    1.6070 C   0  0  0  0  0  0  0  0  0  0  0  0
  -17.1610  -21.9290    2.4910 C   0  0  0  0  0  0  0  0  0  0  0  0
  -16.0500  -21.4550    1.7910 C   0  0  0  0  0  0  0  0  0  0  0  0
  -20.6420  -16.2290   -6.9510 C   0  0  0  0  0  0  0  0  0  0  0  0
  -20.4290  -17.7270   -6.7350 C   0  0  0  0  0  0  0  0  0  0  0  0
  -19.5000  -18.2660   -5.8010 C   0  0  0  0  0  0  0  0  0  0  0  0
  -19.5330  -19.7840   -5.8680 C   0  0  0  0  0  0  0  0  0  0  0  0
  -18.6910  -20.6770   -4.9800 C   0  0  0  0  0  0  0  0  0  0  0  0
  -18.9070  -22.0340   -5.0200 C   0  0  0  0  0  0  0  0  0  0  0  0
  -18.1690  -22.8680   -4.2030 C   0  0  0  0  0  0  0  0  0  0  0  0
  -15.0190  -18.8190   -0.6670 C   0  0  0  0  0  0  0  0  0  0  0  0
  -16.1190  -20.3060    1.0070 C   0  0  0  0  0  0  0  0  0  0  0  0
  -18.3630  -21.2270    2.3810 C   0  0  0  0  0  0  0  0  0  0  0  0
  -19.6470  -21.6560    3.0940 C   0  0  0  0  0  0  0  0  0  0  0  0
  -20.2060  -23.0390    2.8510 C   0  0  0  0  0  0  0  0  0  0  0  0
  -15.3000  -17.4820    0.0260 C   0  0  0  0  0  0  0  0  0  0  0  0
  -17.7710  -20.1150   -4.1080 C   0  0  0  0  0  0  0  0  0  0  0  0
  -20.4750  -20.2420   -6.8420 C   0  0  0  0  0  0  0  0  0  0  0  0
  -20.2070  -15.3920   -6.1040 N   0  3  0  0  0  0  0  0  0  0  0  0
  -21.2910  -15.7960   -8.1730 N   0  0  0  0  0  0  0  0  0  0  0  0
  -16.0180  -20.4650   -2.3570 N   0  0  0  0  0  0  0  0  0  0  0  0
  -14.9540  -19.8430    0.3230 O   0  0  0  0  0  0  0  0  0  0  0  0
  -20.2280  -20.8970    3.8020 O   0  0  0  0  0  0  0  0  0  0  0  0
  -16.9820  -18.3960   -1.9450 O   0  0  0  0  0  0  0  0  0  0  0  0
  -21.1980  -18.9370   -7.5140 S   0  0  0  0  0  0  0  0  0  0  0  0
  -16.7080  -23.0170   -2.7250 H   0  0  0  0  0  0  0  0  0  0  0  0
  -12.8930  -18.4740   -0.6550 H   0  0  0  0  0  0  0  0  0  0  0  0
  -13.3910  -19.6970   -1.8150 H   0  0  0  0  0  0  0  0  0  0  0  0
  -13.6630  -17.9950   -2.1570 H   0  0  0  0  0  0  0  0  0  0  0  0
  -17.5130  -18.7260    0.3890 H   0  0  0  0  0  0  0  0  0  0  0  0
  -19.3580  -19.5310    1.5320 H   0  0  0  0  0  0  0  0  0  0  0  0
  -17.0980  -22.8320    3.0790 H   0  0  0  0  0  0  0  0  0  0  0  0
  -15.1630  -22.0260    1.7670 H   0  0  0  0  0  0  0  0  0  0  0  0
  -18.8710  -17.6920   -5.1390 H   0  0  0  0  0  0  0  0  0  0  0  0
  -19.6480  -22.4650   -5.6710 H   0  0  0  0  0  0  0  0  0  0  0  0
  -18.3440  -23.9300   -4.2070 H   0  0  0  0  0  0  0  0  0  0  0  0
  -20.4490  -23.4950    3.8090 H   0  0  0  0  0  0  0  0  0  0  0  0
  -21.1100  -22.9800    2.2540 H   0  0  0  0  0  0  0  0  0  0  0  0
  -19.4700  -23.6560    2.3430 H   0  0  0  0  0  0  0  0  0  0  0  0
  -14.8960  -17.4890    1.0390 H   0  0  0  0  0  0  0  0  0  0  0  0
  -14.7910  -16.6720   -0.4970 H   0  0  0  0  0  0  0  0  0  0  0  0
  -16.3330  -17.1520    0.0960 H   0  0  0  0  0  0  0  0  0  0  0  0
  -17.5950  -19.0540   -4.1220 H   0  0  0  0  0  0  0  0  0  0  0  0
  -20.7390  -21.2440   -7.1440 H   0  0  0  0  0  0  0  0  0  0  0  0
  -20.3910  -14.3940   -6.2190 H   0  0  0  0  0  0  0  0  0  0  0  0
  -19.6690  -15.6980   -5.3030 H   0  0  0  0  0  0  0  0  0  0  0  0
  -21.4750  -14.8020   -8.3050 H   0  0  0  0  0  0  0  0  0  0  0  0
  -21.6490  -16.4700   -8.8530 H   0  0  0  0  0  0  0  0  0  0  0  0
  -15.3250  -21.1310   -2.0320 H   0  0  0  0  0  0  0  0  0  0  0  0
  1  2  2  0  0  0  0
  1 15  1  0  0  0  0
  1 31  1  0  0  0  0
  2 22  1  0  0  0  0
  2 26  1  0  0  0  0
  3 16  1  0  0  0  0
  3 26  1  0  0  0  0
  3 29  2  0  0  0  0
  4 16  1  0  0  0  0
  4 32  1  0  0  0  0
  4 33  1  0  0  0  0
  4 34  1  0  0  0  0
  5  6  2  0  0  0  0
  5 17  1  0  0  0  0
  5 35  1  0  0  0  0
  6 18  1  0  0  0  0
  6 36  1  0  0  0  0
  7  8  1  0  0  0  0
  7 18  2  0  0  0  0
  7 37  1  0  0  0  0
  8 17  2  0  0  0  0
  8 38  1  0  0  0  0
  9 10  1  0  0  0  0
  9 24  2  0  0  0  0
  9 25  1  0  0  0  0
 10 11  2  0  0  0  0
 10 30  1  0  0  0  0
 11 12  1  0  0  0  0
 11 39  1  0  0  0  0
 12 13  1  0  0  0  0
 12 23  2  0  0  0  0
 13 14  1  0  0  0  0
 13 22  2  0  0  0  0
 14 15  2  0  0  0  0
 14 40  1  0  0  0  0
 15 41  1  0  0  0  0
 16 21  1  0  0  0  0
 16 27  1  0  0  0  0
 17 27  1  0  0  0  0
 18 19  1  0  0  0  0
 19 20  1  0  0  0  0
 19 28  2  0  0  0  0
 20 42  1  0  0  0  0
 20 43  1  0  0  0  0
 20 44  1  0  0  0  0
 21 45  1  0  0  0  0
 21 46  1  0  0  0  0
 21 47  1  0  0  0  0
 22 48  1  0  0  0  0
 23 30  1  0  0  0  0
 23 49  1  0  0  0  0
 24 50  1  0  0  0  0
 24 51  1  0  0  0  0
 25 52  1  0  0  0  0
 25 53  1  0  0  0  0
 26 54  1  0  0  0  0
M  CHG  1  24   1
M  END
>  <COMPND>
    title: molecule 1

$$$$
8BX0_ligand0.pdb
 OpenBabel06042612053D

 53 55  0  0  0  0  0  0  0  0999 V2000
  -16.9200  -21.0140   -3.0950 C   0  0  0  0  0  0  0  0  0  0  0  0
  -17.0730  -22.3730   -3.3160 C   0  0  0  0  0  0  0  0  0  0  0  0
  -14.9640  -19.2330   -0.1800 C   0  0  0  0  0  0  0  0  0  0  0  0
  -15.0850  -17.8590    0.4830 C   0  0  0  0  0  0  0  0  0  0  0  0
  -21.1020  -20.7550    3.3960 C   0  0  0  0  0  0  0  0  0  0  0  0
  -20.5610  -16.1450   -6.7090 C   0  0  0  0  0  0  0  0  0  0  0  0
  -20.3060  -17.6350   -6.5610 C   0  0  0  0  0  0  0  0  0  0  0  0
  -19.4150  -18.1590   -5.5720 C   0  0  0  0  0  0  0  0  0  0  0  0
  -19.3690  -19.6690   -5.6920 C   0  0  0  0  0  0  0  0  0  0  0  0
  -18.5300  -20.5870   -4.8150 C   0  0  0  0  0  0  0  0  0  0  0  0
  -18.6570  -21.9400   -5.0430 C   0  0  0  0  0  0  0  0  0  0  0  0
  -17.9280  -22.8380   -4.2920 C   0  0  0  0  0  0  0  0  0  0  0  0
  -15.9730  -19.3840   -1.3300 C   0  0  0  0  0  0  0  0  0  0  0  0
  -16.3900  -20.5430    1.4440 C   0  0  0  0  0  0  0  0  0  0  0  0
  -17.5210  -19.7350    1.3390 C   0  0  0  0  0  0  0  0  0  0  0  0
  -18.6960  -20.0660    2.0170 C   0  0  0  0  0  0  0  0  0  0  0  0
  -18.7620  -21.2050    2.8230 C   0  0  0  0  0  0  0  0  0  0  0  0
  -17.6240  -22.0150    2.9370 C   0  0  0  0  0  0  0  0  0  0  0  0
  -16.4610  -21.6810    2.2540 C   0  0  0  0  0  0  0  0  0  0  0  0
  -13.5490  -19.3880   -0.7240 C   0  0  0  0  0  0  0  0  0  0  0  0
  -17.6650  -20.1020   -3.8350 C   0  0  0  0  0  0  0  0  0  0  0  0
  -20.2320  -20.1190   -6.7460 C   0  0  0  0  0  0  0  0  0  0  0  0
  -21.1130  -15.6860   -7.7330 N   0  3  0  0  0  0  0  0  0  0  0  0
  -20.0870  -15.2690   -5.6650 N   0  0  0  0  0  0  0  0  0  0  0  0
  -15.9980  -20.6600   -2.0240 N   0  0  0  0  0  0  0  0  0  0  0  0
  -15.1560  -20.2660    0.7840 O   0  0  0  0  0  0  0  0  0  0  0  0
  -19.9460  -21.5640    3.5240 O   0  0  0  0  0  0  0  0  0  0  0  0
  -16.7070  -18.4960   -1.6220 O   0  0  0  0  0  0  0  0  0  0  0  0
  -20.9640  -18.8420   -7.4340 S   0  0  0  0  0  0  0  0  0  0  0  0
  -16.5070  -23.0860   -2.7340 H   0  0  0  0  0  0  0  0  0  0  0  0
  -14.3710  -17.7820    1.3040 H   0  0  0  0  0  0  0  0  0  0  0  0
  -14.8320  -17.0650   -0.2210 H   0  0  0  0  0  0  0  0  0  0  0  0
  -16.0500  -17.5940    0.9000 H   0  0  0  0  0  0  0  0  0  0  0  0
  -21.9530  -21.2170    3.8970 H   0  0  0  0  0  0  0  0  0  0  0  0
  -20.8580  -19.8360    3.8910 H   0  0  0  0  0  0  0  0  0  0  0  0
  -21.3810  -20.5730    2.3580 H   0  0  0  0  0  0  0  0  0  0  0  0
  -18.8490  -17.5910   -4.8500 H   0  0  0  0  0  0  0  0  0  0  0  0
  -19.3200  -22.3380   -5.7930 H   0  0  0  0  0  0  0  0  0  0  0  0
  -18.0310  -23.9000   -4.4620 H   0  0  0  0  0  0  0  0  0  0  0  0
  -17.5840  -18.8640    0.7160 H   0  0  0  0  0  0  0  0  0  0  0  0
  -19.5390  -19.4020    1.9020 H   0  0  0  0  0  0  0  0  0  0  0  0
  -17.6530  -22.9020    3.5510 H   0  0  0  0  0  0  0  0  0  0  0  0
  -15.6240  -22.3450    2.3340 H   0  0  0  0  0  0  0  0  0  0  0  0
  -13.4730  -20.1820   -1.4660 H   0  0  0  0  0  0  0  0  0  0  0  0
  -13.1610  -18.4740   -1.1740 H   0  0  0  0  0  0  0  0  0  0  0  0
  -12.9010  -19.6920    0.0870 H   0  0  0  0  0  0  0  0  0  0  0  0
  -17.5740  -19.0380   -3.7060 H   0  0  0  0  0  0  0  0  0  0  0  0
  -20.4410  -21.1160   -7.1020 H   0  0  0  0  0  0  0  0  0  0  0  0
  -21.3000  -14.6850   -7.8130 H   0  0  0  0  0  0  0  0  0  0  0  0
  -21.4340  -16.3090   -8.4660 H   0  0  0  0  0  0  0  0  0  0  0  0
  -20.2470  -14.2620   -5.7480 H   0  0  0  0  0  0  0  0  0  0  0  0
  -19.6190  -15.6400   -4.8520 H   0  0  0  0  0  0  0  0  0  0  0  0
  -15.3840  -21.3880   -1.6880 H   0  0  0  0  0  0  0  0  0  0  0  0
  1  2  2  0  0  0  0
  1 21  1  0  0  0  0
  1 25  1  0  0  0  0
  2 12  1  0  0  0  0
  2 30  1  0  0  0  0
  3  4  1  0  0  0  0
  3 13  1  0  0  0  0
  3 20  1  0  0  0  0
  3 26  1  0  0  0  0
  4 31  1  0  0  0  0
  4 32  1  0  0  0  0
  4 33  1  0  0  0  0
  5 27  1  0  0  0  0
  5 34  1  0  0  0  0
  5 35  1  0  0  0  0
  5 36  1  0  0  0  0
  6  7  1  0  0  0  0
  6 23  2  0  0  0  0
  6 24  1  0  0  0  0
  7  8  2  0  0  0  0
  7 29  1  0  0  0  0
  8  9  1  0  0  0  0
  8 37  1  0  0  0  0
  9 10  1  0  0  0  0
  9 22  2  0  0  0  0
 10 11  1  0  0  0  0
 10 21  2  0  0  0  0
 11 12  2  0  0  0  0
 11 38  1  0  0  0  0
 12 39  1  0  0  0  0
 13 25  1  0  0  0  0
 13 28  2  0  0  0  0
 14 15  2  0  0  0  0
 14 19  1  0  0  0  0
 14 26  1  0  0  0  0
 15 16  1  0  0  0  0
 15 40  1  0  0  0  0
 16 17  2  0  0  0  0
 16 41  1  0  0  0  0
 17 18  1  0  0  0  0
 17 27  1  0  0  0  0
 18 19  2  0  0  0  0
 18 42  1  0  0  0  0
 19 43  1  0  0  0  0
 20 44  1  0  0  0  0
 20 45  1  0  0  0  0
 20 46  1  0  0  0  0
 21 47  1  0  0  0  0
 22 29  1  0  0  0  0
 22 48  1  0  0  0  0
 23 49  1  0  0  0  0
 23 50  1  0  0  0  0
 24 51  1  0  0  0  0
 24 52  1  0  0  0  0
 25 53  1  0  0  0  0
M  CHG  1  23   1
M  END
>  <COMPND>
    title: molecule 1

$$$$
8BX3_ligand0.pdb
 OpenBabel06042612053D

 49 51  0  0  0  0  0  0  0  0999 V2000
  -18.7680  -20.5510   -4.8780 C   0  0  0  0  0  0  0  0  0  0  0  0
  -17.9170  -19.9940   -3.9130 C   0  0  0  0  0  0  0  0  0  0  0  0
  -20.5010  -16.0520   -6.8200 C   0  0  0  0  0  0  0  0  0  0  0  0
  -18.3690  -21.8010    2.5780 C   0  0  0  0  0  0  0  0  0  0  0  0
  -17.1490  -22.3670    2.5890 C   0  0  0  0  0  0  0  0  0  0  0  0
  -16.1000  -21.7610    1.8840 C   0  0  0  0  0  0  0  0  0  0  0  0
  -16.3070  -20.5740    1.1990 C   0  0  0  0  0  0  0  0  0  0  0  0
  -15.2880  -18.8200   -0.2830 C   0  0  0  0  0  0  0  0  0  0  0  0
  -15.6380  -17.5660    0.5850 C   0  0  0  0  0  0  0  0  0  0  0  0
  -16.3690  -19.0450   -1.4230 C   0  0  0  0  0  0  0  0  0  0  0  0
  -17.2780  -20.8560   -3.0460 C   0  0  0  0  0  0  0  0  0  0  0  0
  -19.5050  -19.6270   -5.8600 C   0  0  0  0  0  0  0  0  0  0  0  0
  -20.2360  -20.0360   -7.0090 C   0  0  0  0  0  0  0  0  0  0  0  0
  -20.2870  -17.5520   -6.7110 C   0  0  0  0  0  0  0  0  0  0  0  0
  -19.5360  -18.1130   -5.6750 C   0  0  0  0  0  0  0  0  0  0  0  0
  -18.9950  -21.8880   -4.9510 C   0  0  0  0  0  0  0  0  0  0  0  0
  -18.3540  -22.7350   -4.0800 C   0  0  0  0  0  0  0  0  0  0  0  0
  -17.4950  -22.2030   -3.1180 C   0  0  0  0  0  0  0  0  0  0  0  0
  -13.9200  -18.6310   -0.9440 C   0  0  0  0  0  0  0  0  0  0  0  0
  -17.5810  -19.9880    1.1940 C   0  0  0  0  0  0  0  0  0  0  0  0
  -18.6050  -20.5730    1.8670 C   0  0  0  0  0  0  0  0  0  0  0  0
  -16.3740  -20.4080   -2.0200 N   0  0  0  0  0  0  0  0  0  0  0  0
  -21.1930  -15.5150   -7.9800 N   0  3  0  0  0  0  0  0  0  0  0  0
  -20.0210  -15.3130   -5.8710 N   0  0  0  0  0  0  0  0  0  0  0  0
  -15.1920  -20.0180    0.5030 O   0  0  0  0  0  0  0  0  0  0  0  0
  -17.1310  -18.1730   -1.7540 O   0  0  0  0  0  0  0  0  0  0  0  0
  -20.8630  -18.7150   -7.7190 S   0  0  0  0  0  0  0  0  0  0  0  0
  -19.8090  -22.6560    3.5220 Br  0  0  0  0  0  0  0  0  0  0  0  0
  -17.7330  -18.9340   -3.8970 H   0  0  0  0  0  0  0  0  0  0  0  0
  -17.0150  -23.2660    3.1480 H   0  0  0  0  0  0  0  0  0  0  0  0
  -15.1210  -22.2170    1.8860 H   0  0  0  0  0  0  0  0  0  0  0  0
  -15.0280  -17.5500    1.4880 H   0  0  0  0  0  0  0  0  0  0  0  0
  -15.4090  -16.6520    0.0370 H   0  0  0  0  0  0  0  0  0  0  0  0
  -16.6730  -17.4710    0.8960 H   0  0  0  0  0  0  0  0  0  0  0  0
  -20.4190  -21.0230   -7.4030 H   0  0  0  0  0  0  0  0  0  0  0  0
  -19.0590  -17.5850   -4.8650 H   0  0  0  0  0  0  0  0  0  0  0  0
  -19.6710  -22.3060   -5.6820 H   0  0  0  0  0  0  0  0  0  0  0  0
  -18.5290  -23.7990   -4.1240 H   0  0  0  0  0  0  0  0  0  0  0  0
  -17.0120  -22.8820   -2.4390 H   0  0  0  0  0  0  0  0  0  0  0  0
  -13.6090  -19.5170   -1.4980 H   0  0  0  0  0  0  0  0  0  0  0  0
  -13.9220  -17.7890   -1.6370 H   0  0  0  0  0  0  0  0  0  0  0  0
  -13.1660  -18.4240   -0.1870 H   0  0  0  0  0  0  0  0  0  0  0  0
  -17.8430  -19.0920    0.6650 H   0  0  0  0  0  0  0  0  0  0  0  0
  -19.5880  -20.1240    1.8600 H   0  0  0  0  0  0  0  0  0  0  0  0
  -15.7460  -21.1020   -1.6300 H   0  0  0  0  0  0  0  0  0  0  0  0
  -21.3640  -14.5080   -8.0450 H   0  0  0  0  0  0  0  0  0  0  0  0
  -21.5540  -16.1320   -8.6990 H   0  0  0  0  0  0  0  0  0  0  0  0
  -20.1780  -14.3070   -5.8990 H   0  0  0  0  0  0  0  0  0  0  0  0
  -19.4650  -15.7010   -5.1170 H   0  0  0  0  0  0  0  0  0  0  0  0
  1  2  2  0  0  0  0
  1 12  1  0  0  0  0
  1 16  1  0  0  0  0
  2 11  1  0  0  0  0
  2 29  1  0  0  0  0
  3 14  1  0  0  0  0
  3 23  2  0  0  0  0
  3 24  1  0  0  0  0
  4  5  2  0  0  0  0
  4 21  1  0  0  0  0
  4 28  1  0  0  0  0
  5  6  1  0  0  0  0
  5 30  1  0  0  0  0
  6  7  2  0  0  0  0
  6 31  1  0  0  0  0
  7 20  1  0  0  0  0
  7 25  1  0  0  0  0
  8  9  1  0  0  0  0
  8 10  1  0  0  0  0
  8 19  1  0  0  0  0
  8 25  1  0  0  0  0
  9 32  1  0  0  0  0
  9 33  1  0  0  0  0
  9 34  1  0  0  0  0
 10 22  1  0  0  0  0
 10 26  2  0  0  0  0
 11 18  2  0  0  0  0
 11 22  1  0  0  0  0
 12 13  2  0  0  0  0
 12 15  1  0  0  0  0
 13 27  1  0  0  0  0
 13 35  1  0  0  0  0
 14 15  2  0  0  0  0
 14 27  1  0  0  0  0
 15 36  1  0  0  0  0
 16 17  2  0  0  0  0
 16 37  1  0  0  0  0
 17 18  1  0  0  0  0
 17 38  1  0  0  0  0
 18 39  1  0  0  0  0
 19 40  1  0  0  0  0
 19 41  1  0  0  0  0
 19 42  1  0  0  0  0
 20 21  2  0  0  0  0
 20 43  1  0  0  0  0
 21 44  1  0  0  0  0
 22 45  1  0  0  0  0
 23 46  1  0  0  0  0
 23 47  1  0  0  0  0
 24 48  1  0  0  0  0
 24 49  1  0  0  0  0
M  CHG  1  23   1
M  END
>  <COMPND>
    title: molecule 1

$$$$
8BX4_ligand0.pdb
 OpenBabel06042612053D

 49 51  0  0  0  0  0  0  0  0999 V2000
   20.4620  -16.1340   -6.8120 C   0  0  0  0  0  0  0  0  0  0  0  0
   20.6920  -17.6230   -6.6860 C   0  0  0  0  0  0  0  0  0  0  0  0
   21.4920  -18.1780   -5.6520 C   0  0  0  0  0  0  0  0  0  0  0  0
   21.5350  -19.6810   -5.8080 C   0  0  0  0  0  0  0  0  0  0  0  0
   22.2890  -20.5880   -4.8580 C   0  0  0  0  0  0  0  0  0  0  0  0
   22.1290  -21.9530   -4.9750 C   0  0  0  0  0  0  0  0  0  0  0  0
   22.7920  -22.8010   -4.1110 C   0  0  0  0  0  0  0  0  0  0  0  0
   23.6100  -22.2720   -3.1320 C   0  0  0  0  0  0  0  0  0  0  0  0
   23.7730  -20.9000   -3.0170 C   0  0  0  0  0  0  0  0  0  0  0  0
   24.5990  -19.1120   -1.3530 C   0  0  0  0  0  0  0  0  0  0  0  0
   25.5970  -18.8570   -0.2260 C   0  0  0  0  0  0  0  0  0  0  0  0
   25.1650  -17.6720    0.6370 C   0  0  0  0  0  0  0  0  0  0  0  0
   24.6190  -20.6110    1.2520 C   0  0  0  0  0  0  0  0  0  0  0  0
   24.9190  -21.7390    2.0020 C   0  0  0  0  0  0  0  0  0  0  0  0
   23.9590  -22.4170    2.7300 C   0  0  0  0  0  0  0  0  0  0  0  0
   22.6610  -21.9530    2.6900 C   0  0  0  0  0  0  0  0  0  0  0  0
   22.3390  -20.8310    1.9480 C   0  0  0  0  0  0  0  0  0  0  0  0
   23.3040  -20.1440    1.2160 C   0  0  0  0  0  0  0  0  0  0  0  0
   26.9700  -18.5920   -0.8300 C   0  0  0  0  0  0  0  0  0  0  0  0
   23.0990  -20.0430   -3.8720 C   0  0  0  0  0  0  0  0  0  0  0  0
   20.7560  -20.1090   -6.9240 C   0  0  0  0  0  0  0  0  0  0  0  0
   20.8350  -15.4250   -5.8390 N   0  3  0  0  0  0  0  0  0  0  0  0
   19.8740  -15.5800   -8.0130 N   0  0  0  0  0  0  0  0  0  0  0  0
   24.6500  -20.4330   -1.9530 N   0  0  0  0  0  0  0  0  0  0  0  0
   25.7110  -20.0210    0.5600 O   0  0  0  0  0  0  0  0  0  0  0  0
   23.8220  -18.2740   -1.6840 O   0  0  0  0  0  0  0  0  0  0  0  0
   20.0990  -18.7990   -7.6300 S   0  0  0  0  0  0  0  0  0  0  0  0
   21.4010  -22.8200    3.6090 Cl  0  0  0  0  0  0  0  0  0  0  0  0
   20.6520  -20.2790    1.9330 Cl  0  0  0  0  0  0  0  0  0  0  0  0
   21.9910  -17.6410   -4.8660 H   0  0  0  0  0  0  0  0  0  0  0  0
   21.4860  -22.3810   -5.7280 H   0  0  0  0  0  0  0  0  0  0  0  0
   22.6700  -23.8710   -4.1970 H   0  0  0  0  0  0  0  0  0  0  0  0
   24.1160  -22.9600   -2.4880 H   0  0  0  0  0  0  0  0  0  0  0  0
   25.7210  -17.6630    1.5750 H   0  0  0  0  0  0  0  0  0  0  0  0
   25.3910  -16.7310    0.1360 H   0  0  0  0  0  0  0  0  0  0  0  0
   24.1110  -17.6270    0.8960 H   0  0  0  0  0  0  0  0  0  0  0  0
   25.8960  -22.0930    1.8500 H   0  0  0  0  0  0  0  0  0  0  0  0
   24.1710  -23.2490    3.3490 H   0  0  0  0  0  0  0  0  0  0  0  0
   22.9650  -19.3000    0.6440 H   0  0  0  0  0  0  0  0  0  0  0  0
   27.7010  -18.3940   -0.0460 H   0  0  0  0  0  0  0  0  0  0  0  0
   27.3310  -19.4460   -1.4040 H   0  0  0  0  0  0  0  0  0  0  0  0
   26.9600  -17.7260   -1.4940 H   0  0  0  0  0  0  0  0  0  0  0  0
   23.2450  -18.9800   -3.8290 H   0  0  0  0  0  0  0  0  0  0  0  0
   20.5720  -21.1000   -7.3100 H   0  0  0  0  0  0  0  0  0  0  0  0
   20.6880  -14.4180   -5.8700 H   0  0  0  0  0  0  0  0  0  0  0  0
   21.3400  -15.8250   -5.0570 H   0  0  0  0  0  0  0  0  0  0  0  0
   19.6830  -14.5760   -8.0670 H   0  0  0  0  0  0  0  0  0  0  0  0
   19.5630  -16.1880   -8.7620 H   0  0  0  0  0  0  0  0  0  0  0  0
   25.2930  -21.1120   -1.5610 H   0  0  0  0  0  0  0  0  0  0  0  0
  1  2  1  0  0  0  0
  1 22  2  0  0  0  0
  1 23  1  0  0  0  0
  2  3  2  0  0  0  0
  2 27  1  0  0  0  0
  3  4  1  0  0  0  0
  3 30  1  0  0  0  0
  4  5  1  0  0  0  0
  4 21  2  0  0  0  0
  5  6  2  0  0  0  0
  5 20  1  0  0  0  0
  6  7  1  0  0  0  0
  6 31  1  0  0  0  0
  7  8  2  0  0  0  0
  7 32  1  0  0  0  0
  8  9  1  0  0  0  0
  8 33  1  0  0  0  0
  9 20  2  0  0  0  0
  9 24  1  0  0  0  0
 10 11  1  0  0  0  0
 10 24  1  0  0  0  0
 10 26  2  0  0  0  0
 11 12  1  0  0  0  0
 11 19  1  0  0  0  0
 11 25  1  0  0  0  0
 12 34  1  0  0  0  0
 12 35  1  0  0  0  0
 12 36  1  0  0  0  0
 13 14  2  0  0  0  0
 13 18  1  0  0  0  0
 13 25  1  0  0  0  0
 14 15  1  0  0  0  0
 14 37  1  0  0  0  0
 15 16  2  0  0  0  0
 15 38  1  0  0  0  0
 16 17  1  0  0  0  0
 16 28  1  0  0  0  0
 17 18  2  0  0  0  0
 17 29  1  0  0  0  0
 18 39  1  0  0  0  0
 19 40  1  0  0  0  0
 19 41  1  0  0  0  0
 19 42  1  0  0  0  0
 20 43  1  0  0  0  0
 21 27  1  0  0  0  0
 21 44  1  0  0  0  0
 22 45  1  0  0  0  0
 22 46  1  0  0  0  0
 23 47  1  0  0  0  0
 23 48  1  0  0  0  0
 24 49  1  0  0  0  0
M  CHG  1  22   1
M  END
>  <COMPND>
    title: molecule 1

$$$$
8BXI_ligand0.pdb
 OpenBabel06042612053D

 49 51  0  0  0  0  0  0  0  0999 V2000
   20.5670   16.2420   -6.8000 C   0  0  0  0  0  0  0  0  0  0  0  0
   17.5030   22.1270   -2.8130 C   0  0  0  0  0  0  0  0  0  0  0  0
   20.4790   20.2490   -6.8360 C   0  0  0  0  0  0  0  0  0  0  0  0
   17.2410   21.1660    2.2210 C   0  0  0  0  0  0  0  0  0  0  0  0
   17.3190   22.2470    3.1110 C   0  0  0  0  0  0  0  0  0  0  0  0
   16.4930   22.5290    0.0610 C   0  0  0  0  0  0  0  0  0  0  0  0
   15.7980   21.2010    0.3390 C   0  0  0  0  0  0  0  0  0  0  0  0
   14.3070   21.3830    0.1040 C   0  0  0  0  0  0  0  0  0  0  0  0
   16.2550   19.9840   -0.4780 C   0  0  0  0  0  0  0  0  0  0  0  0
   17.5860   20.7430   -2.7210 C   0  0  0  0  0  0  0  0  0  0  0  0
   18.2930   20.0570   -3.6900 C   0  0  0  0  0  0  0  0  0  0  0  0
   18.9310   20.7110   -4.7210 C   0  0  0  0  0  0  0  0  0  0  0  0
   19.6810   19.8390   -5.7190 C   0  0  0  0  0  0  0  0  0  0  0  0
   20.4200   17.7510   -6.6560 C   0  0  0  0  0  0  0  0  0  0  0  0
   19.6460   18.3260   -5.6110 C   0  0  0  0  0  0  0  0  0  0  0  0
   18.8660   22.0810   -4.8180 C   0  0  0  0  0  0  0  0  0  0  0  0
   18.1500   22.7920   -3.8590 C   0  0  0  0  0  0  0  0  0  0  0  0
   18.5600   22.6220    3.5960 C   0  0  0  0  0  0  0  0  0  0  0  0
   19.7000   21.9280    3.2100 C   0  0  0  0  0  0  0  0  0  0  0  0
   19.6120   20.8500    2.3380 C   0  0  0  0  0  0  0  0  0  0  0  0
   18.3800   20.4710    1.8370 C   0  0  0  0  0  0  0  0  0  0  0  0
   16.9950   19.8280   -1.7360 N   0  0  0  0  0  0  0  0  0  0  0  0
   21.1890   15.6590   -7.9760 N   0  3  0  0  0  0  0  0  0  0  0  0
   20.1000   15.5260   -5.8750 N   0  0  0  0  0  0  0  0  0  0  0  0
   15.9470   18.9550    0.0180 O   0  0  0  0  0  0  0  0  0  0  0  0
   16.0010   20.7800    1.6800 O   0  0  0  0  0  0  0  0  0  0  0  0
   21.0630   18.9220   -7.5740 S   0  0  0  0  0  0  0  0  0  0  0  0
   16.8780   22.7520   -2.2370 H   0  0  0  0  0  0  0  0  0  0  0  0
   20.7090   21.2410   -7.1960 H   0  0  0  0  0  0  0  0  0  0  0  0
   16.4160   22.7310    3.4320 H   0  0  0  0  0  0  0  0  0  0  0  0
   17.5160   22.3950   -0.2550 H   0  0  0  0  0  0  0  0  0  0  0  0
   15.9090   23.1340   -0.6320 H   0  0  0  0  0  0  0  0  0  0  0  0
   16.4980   23.1970    0.9190 H   0  0  0  0  0  0  0  0  0  0  0  0
   13.7240   20.6010    0.5920 H   0  0  0  0  0  0  0  0  0  0  0  0
   13.9330   22.3420    0.4500 H   0  0  0  0  0  0  0  0  0  0  0  0
   14.0660   21.3460   -0.9600 H   0  0  0  0  0  0  0  0  0  0  0  0
   18.3340   18.9900   -3.5690 H   0  0  0  0  0  0  0  0  0  0  0  0
   19.1130   17.7490   -4.8750 H   0  0  0  0  0  0  0  0  0  0  0  0
   19.3590   22.6050   -5.6240 H   0  0  0  0  0  0  0  0  0  0  0  0
   18.0660   23.8650   -3.9400 H   0  0  0  0  0  0  0  0  0  0  0  0
   18.6440   23.4100    4.3270 H   0  0  0  0  0  0  0  0  0  0  0  0
   20.6640   22.2230    3.5980 H   0  0  0  0  0  0  0  0  0  0  0  0
   20.5030   20.3120    2.0470 H   0  0  0  0  0  0  0  0  0  0  0  0
   18.3270   19.6240    1.1710 H   0  0  0  0  0  0  0  0  0  0  0  0
   17.1400   18.8560   -1.9660 H   0  0  0  0  0  0  0  0  0  0  0  0
   21.3360   14.6480   -8.0320 H   0  0  0  0  0  0  0  0  0  0  0  0
   21.5810   16.2590   -8.6930 H   0  0  0  0  0  0  0  0  0  0  0  0
   20.2220   14.5170   -5.9170 H   0  0  0  0  0  0  0  0  0  0  0  0
   19.5900   15.9270   -5.0980 H   0  0  0  0  0  0  0  0  0  0  0  0
  1 14  1  0  0  0  0
  1 23  2  0  0  0  0
  1 24  1  0  0  0  0
  2 10  2  0  0  0  0
  2 17  1  0  0  0  0
  2 28  1  0  0  0  0
  3 13  2  0  0  0  0
  3 27  1  0  0  0  0
  3 29  1  0  0  0  0
  4  5  2  0  0  0  0
  4 21  1  0  0  0  0
  4 26  1  0  0  0  0
  5 18  1  0  0  0  0
  5 30  1  0  0  0  0
  6  7  1  0  0  0  0
  6 31  1  0  0  0  0
  6 32  1  0  0  0  0
  6 33  1  0  0  0  0
  7  8  1  0  0  0  0
  7  9  1  0  0  0  0
  7 26  1  0  0  0  0
  8 34  1  0  0  0  0
  8 35  1  0  0  0  0
  8 36  1  0  0  0  0
  9 22  1  0  0  0  0
  9 25  2  0  0  0  0
 10 11  1  0  0  0  0
 10 22  1  0  0  0  0
 11 12  2  0  0  0  0
 11 37  1  0  0  0  0
 12 13  1  0  0  0  0
 12 16  1  0  0  0  0
 13 15  1  0  0  0  0
 14 15  2  0  0  0  0
 14 27  1  0  0  0  0
 15 38  1  0  0  0  0
 16 17  2  0  0  0  0
 16 39  1  0  0  0  0
 17 40  1  0  0  0  0
 18 19  2  0  0  0  0
 18 41  1  0  0  0  0
 19 20  1  0  0  0  0
 19 42  1  0  0  0  0
 20 21  2  0  0  0  0
 20 43  1  0  0  0  0
 21 44  1  0  0  0  0
 22 45  1  0  0  0  0
 23 46  1  0  0  0  0
 23 47  1  0  0  0  0
 24 48  1  0  0  0  0
 24 49  1  0  0  0  0
M  CHG  1  23   1
M  END
>  <COMPND>
    title: molecule 1

$$$$
8BXM_ligand0.pdb
 OpenBabel06042612053D

 50 52  0  0  0  0  0  0  0  0999 V2000
   17.3000   19.4380   -0.6870 C   0  0  0  0  0  0  0  0  0  0  0  0
   17.7970   21.1160   -2.6410 C   0  0  0  0  0  0  0  0  0  0  0  0
   18.4700   20.2300   -3.4930 C   0  0  0  0  0  0  0  0  0  0  0  0
   18.8410   20.6650   -4.7590 C   0  0  0  0  0  0  0  0  0  0  0  0
   18.5830   21.9570   -5.1590 C   0  0  0  0  0  0  0  0  0  0  0  0
   17.9400   22.8300   -4.3090 C   0  0  0  0  0  0  0  0  0  0  0  0
   15.9790   20.4710    1.2710 C   0  0  0  0  0  0  0  0  0  0  0  0
   16.8820   19.2980    0.8020 C   0  0  0  0  0  0  0  0  0  0  0  0
   16.0860   17.9660    0.9210 C   0  0  0  0  0  0  0  0  0  0  0  0
   19.0650   20.1880    2.2400 C   0  0  0  0  0  0  0  0  0  0  0  0
   18.7890   21.5690    2.2890 C   0  0  0  0  0  0  0  0  0  0  0  0
   19.7460   22.4730    2.8300 C   0  0  0  0  0  0  0  0  0  0  0  0
   20.9690   22.0110    3.3450 C   0  0  0  0  0  0  0  0  0  0  0  0
   21.2570   20.6350    3.3250 C   0  0  0  0  0  0  0  0  0  0  0  0
   20.3000   19.7370    2.7690 C   0  0  0  0  0  0  0  0  0  0  0  0
   17.5650   22.4110   -3.0480 C   0  0  0  0  0  0  0  0  0  0  0  0
   19.5630   19.7370   -5.7370 C   0  0  0  0  0  0  0  0  0  0  0  0
   20.3790   20.1760   -6.8420 C   0  0  0  0  0  0  0  0  0  0  0  0
   20.3210   17.6830   -6.7360 C   0  0  0  0  0  0  0  0  0  0  0  0
   19.5230   18.2110   -5.6710 C   0  0  0  0  0  0  0  0  0  0  0  0
   20.5180   16.1600   -7.0080 C   0  0  0  0  0  0  0  0  0  0  0  0
   18.1000   19.1310    1.6780 N   0  0  0  0  0  0  0  0  0  0  0  0
   17.3740   20.7860   -1.2630 N   0  0  0  0  0  0  0  0  0  0  0  0
   20.1200   15.2000   -5.9390 N   0  3  0  0  0  0  0  0  0  0  0  0
   20.9960   15.8340   -8.1600 N   0  0  0  0  0  0  0  0  0  0  0  0
   17.5570   18.4770   -1.3300 O   0  0  0  0  0  0  0  0  0  0  0  0
   20.9860   18.8760   -7.6290 S   0  0  0  0  0  0  0  0  0  0  0  0
   18.7140   19.2210   -3.2130 H   0  0  0  0  0  0  0  0  0  0  0  0
   18.8600   22.3010   -6.1440 H   0  0  0  0  0  0  0  0  0  0  0  0
   17.6810   23.8220   -4.6140 H   0  0  0  0  0  0  0  0  0  0  0  0
   16.0380   20.6060    2.3520 H   0  0  0  0  0  0  0  0  0  0  0  0
   16.1000   21.4260    0.8090 H   0  0  0  0  0  0  0  0  0  0  0  0
   14.9350   20.2260    1.0730 H   0  0  0  0  0  0  0  0  0  0  0  0
   15.6760   17.8390    1.9220 H   0  0  0  0  0  0  0  0  0  0  0  0
   15.2410   17.9390    0.2320 H   0  0  0  0  0  0  0  0  0  0  0  0
   16.7070   17.0930    0.7160 H   0  0  0  0  0  0  0  0  0  0  0  0
   17.8520   21.9710    1.9700 H   0  0  0  0  0  0  0  0  0  0  0  0
   19.5440   23.5290    2.8360 H   0  0  0  0  0  0  0  0  0  0  0  0
   21.7100   22.7200    3.6790 H   0  0  0  0  0  0  0  0  0  0  0  0
   22.2090   20.2670    3.6790 H   0  0  0  0  0  0  0  0  0  0  0  0
   20.5390   18.6860    2.7380 H   0  0  0  0  0  0  0  0  0  0  0  0
   17.0390   23.1120   -2.4250 H   0  0  0  0  0  0  0  0  0  0  0  0
   20.6140   21.1780   -7.1680 H   0  0  0  0  0  0  0  0  0  0  0  0
   18.9720   17.6750   -4.9310 H   0  0  0  0  0  0  0  0  0  0  0  0
   18.4510   18.1840    1.7080 H   0  0  0  0  0  0  0  0  0  0  0  0
   17.1200   21.5730   -0.6740 H   0  0  0  0  0  0  0  0  0  0  0  0
   20.2880   14.1960   -6.0590 H   0  0  0  0  0  0  0  0  0  0  0  0
   19.6520   15.5250   -5.1000 H   0  0  0  0  0  0  0  0  0  0  0  0
   21.1830   14.8540   -8.3490 H   0  0  0  0  0  0  0  0  0  0  0  0
   21.2830   16.5390   -8.8360 H   0  0  0  0  0  0  0  0  0  0  0  0
  1  8  1  0  0  0  0
  1 23  1  0  0  0  0
  1 26  2  0  0  0  0
  2  3  2  0  0  0  0
  2 16  1  0  0  0  0
  2 23  1  0  0  0  0
  3  4  1  0  0  0  0
  3 28  1  0  0  0  0
  4  5  2  0  0  0  0
  4 17  1  0  0  0  0
  5  6  1  0  0  0  0
  5 29  1  0  0  0  0
  6 16  2  0  0  0  0
  6 30  1  0  0  0  0
  7  8  1  0  0  0  0
  7 31  1  0  0  0  0
  7 32  1  0  0  0  0
  7 33  1  0  0  0  0
  8  9  1  0  0  0  0
  8 22  1  0  0  0  0
  9 34  1  0  0  0  0
  9 35  1  0  0  0  0
  9 36  1  0  0  0  0
 10 11  2  0  0  0  0
 10 15  1  0  0  0  0
 10 22  1  0  0  0  0
 11 12  1  0  0  0  0
 11 37  1  0  0  0  0
 12 13  2  0  0  0  0
 12 38  1  0  0  0  0
 13 14  1  0  0  0  0
 13 39  1  0  0  0  0
 14 15  2  0  0  0  0
 14 40  1  0  0  0  0
 15 41  1  0  0  0  0
 16 42  1  0  0  0  0
 17 18  2  0  0  0  0
 17 20  1  0  0  0  0
 18 27  1  0  0  0  0
 18 43  1  0  0  0  0
 19 20  2  0  0  0  0
 19 21  1  0  0  0  0
 19 27  1  0  0  0  0
 20 44  1  0  0  0  0
 21 24  2  0  0  0  0
 21 25  1  0  0  0  0
 22 45  1  0  0  0  0
 23 46  1  0  0  0  0
 24 47  1  0  0  0  0
 24 48  1  0  0  0  0
 25 49  1  0  0  0  0
 25 50  1  0  0  0  0
M  CHG  1  24   1
M  END
>  <COMPND>
    title: molecule 1

$$$$
8BXN_ligand0.pdb
 OpenBabel06042612053D

 54 57  0  0  0  0  0  0  0  0999 V2000
  -18.7450   22.3870    5.8620 C   0  0  0  0  0  0  0  0  0  0  0  0
  -18.1980   23.3340    4.9960 C   0  0  0  0  0  0  0  0  0  0  0  0
  -17.9410   22.9960    3.6700 C   0  0  0  0  0  0  0  0  0  0  0  0
  -18.2330   21.7130    3.2280 C   0  0  0  0  0  0  0  0  0  0  0  0
  -18.1490   22.2730    0.7420 C   0  0  0  0  0  0  0  0  0  0  0  0
  -17.2040   22.0730   -2.9890 C   0  0  0  0  0  0  0  0  0  0  0  0
  -18.9680   20.5190   -2.5790 C   0  0  0  0  0  0  0  0  0  0  0  0
  -19.1380   21.0640   -1.1610 C   0  0  0  0  0  0  0  0  0  0  0  0
  -15.6180   20.6400   -0.1800 C   0  0  0  0  0  0  0  0  0  0  0  0
  -14.7410   19.6440   -0.6250 C   0  0  0  0  0  0  0  0  0  0  0  0
  -20.6140   16.4170    6.9630 C   0  0  0  0  0  0  0  0  0  0  0  0
  -20.3440   17.8970    6.9890 C   0  0  0  0  0  0  0  0  0  0  0  0
  -19.7470   18.6110    5.9270 C   0  0  0  0  0  0  0  0  0  0  0  0
  -19.6350   20.0720    6.3360 C   0  0  0  0  0  0  0  0  0  0  0  0
  -20.1490   20.3310    7.6390 C   0  0  0  0  0  0  0  0  0  0  0  0
  -19.0250   21.1140    5.3850 C   0  0  0  0  0  0  0  0  0  0  0  0
  -17.8500   21.6430   -0.6590 C   0  0  0  0  0  0  0  0  0  0  0  0
  -17.3030   22.6460   -1.5750 C   0  0  0  0  0  0  0  0  0  0  0  0
  -13.3810   19.7730   -0.3840 C   0  0  0  0  0  0  0  0  0  0  0  0
  -12.8970   20.8600    0.3310 C   0  0  0  0  0  0  0  0  0  0  0  0
  -13.7690   21.8400    0.8050 C   0  0  0  0  0  0  0  0  0  0  0  0
  -15.1360   21.7200    0.5450 C   0  0  0  0  0  0  0  0  0  0  0  0
  -18.7860   20.7570    4.0770 C   0  0  0  0  0  0  0  0  0  0  0  0
  -21.1570   15.8510    8.1570 N   0  3  0  0  0  0  0  0  0  0  0  0
  -20.3120   15.7530    5.8900 N   0  0  0  0  0  0  0  0  0  0  0  0
  -17.9900   21.3290    1.8430 N   0  0  0  0  0  0  0  0  0  0  0  0
  -18.5220   23.4020    0.8710 O   0  0  0  0  0  0  0  0  0  0  0  0
  -18.5070   21.5840   -3.4580 O   0  0  0  0  0  0  0  0  0  0  0  0
  -16.9760   20.4600   -0.4740 O   0  0  0  0  0  0  0  0  0  0  0  0
  -20.6870   18.9120    8.2390 S   0  0  0  0  0  0  0  0  0  0  0  0
  -18.9330   22.6560    6.8900 H   0  0  0  0  0  0  0  0  0  0  0  0
  -17.9710   24.3270    5.3530 H   0  0  0  0  0  0  0  0  0  0  0  0
  -17.4780   23.7320    3.0340 H   0  0  0  0  0  0  0  0  0  0  0  0
  -16.4640   21.2730   -3.0340 H   0  0  0  0  0  0  0  0  0  0  0  0
  -16.8840   22.8300   -3.6920 H   0  0  0  0  0  0  0  0  0  0  0  0
  -19.9210   20.1460   -2.9540 H   0  0  0  0  0  0  0  0  0  0  0  0
  -18.2720   19.6820   -2.6000 H   0  0  0  0  0  0  0  0  0  0  0  0
  -19.4930   20.2690   -0.5070 H   0  0  0  0  0  0  0  0  0  0  0  0
  -19.9180   21.8270   -1.1780 H   0  0  0  0  0  0  0  0  0  0  0  0
  -15.1160   18.7900   -1.1640 H   0  0  0  0  0  0  0  0  0  0  0  0
  -19.4370   18.2110    4.9810 H   0  0  0  0  0  0  0  0  0  0  0  0
  -20.2260   21.2500    8.2010 H   0  0  0  0  0  0  0  0  0  0  0  0
  -17.9650   23.5110   -1.6220 H   0  0  0  0  0  0  0  0  0  0  0  0
  -16.3380   23.0440   -1.2720 H   0  0  0  0  0  0  0  0  0  0  0  0
  -12.7120   19.0040   -0.7320 H   0  0  0  0  0  0  0  0  0  0  0  0
  -11.8380   20.9450    0.5280 H   0  0  0  0  0  0  0  0  0  0  0  0
  -13.4010   22.6820    1.3690 H   0  0  0  0  0  0  0  0  0  0  0  0
  -15.7270   22.5290    0.9310 H   0  0  0  0  0  0  0  0  0  0  0  0
  -19.0260   19.7840    3.6820 H   0  0  0  0  0  0  0  0  0  0  0  0
  -21.3560   14.8510    8.1980 H   0  0  0  0  0  0  0  0  0  0  0  0
  -21.3960   16.4370    8.9540 H   0  0  0  0  0  0  0  0  0  0  0  0
  -20.4680   14.7470    5.8680 H   0  0  0  0  0  0  0  0  0  0  0  0
  -19.8960   16.2160    5.0930 H   0  0  0  0  0  0  0  0  0  0  0  0
  -17.8140   20.3550    1.6340 H   0  0  0  0  0  0  0  0  0  0  0  0
  1  2  2  0  0  0  0
  1 16  1  0  0  0  0
  1 31  1  0  0  0  0
  2  3  1  0  0  0  0
  2 32  1  0  0  0  0
  3  4  2  0  0  0  0
  3 33  1  0  0  0  0
  4 23  1  0  0  0  0
  4 26  1  0  0  0  0
  5 17  1  0  0  0  0
  5 26  1  0  0  0  0
  5 27  2  0  0  0  0
  6 18  1  0  0  0  0
  6 28  1  0  0  0  0
  6 34  1  0  0  0  0
  6 35  1  0  0  0  0
  7  8  1  0  0  0  0
  7 28  1  0  0  0  0
  7 36  1  0  0  0  0
  7 37  1  0  0  0  0
  8 17  1  0  0  0  0
  8 38  1  0  0  0  0
  8 39  1  0  0  0  0
  9 10  2  0  0  0  0
  9 22  1  0  0  0  0
  9 29  1  0  0  0  0
 10 19  1  0  0  0  0
 10 40  1  0  0  0  0
 11 12  1  0  0  0  0
 11 24  2  0  0  0  0
 11 25  1  0  0  0  0
 12 13  2  0  0  0  0
 12 30  1  0  0  0  0
 13 14  1  0  0  0  0
 13 41  1  0  0  0  0
 14 15  2  0  0  0  0
 14 16  1  0  0  0  0
 15 30  1  0  0  0  0
 15 42  1  0  0  0  0
 16 23  2  0  0  0  0
 17 18  1  0  0  0  0
 17 29  1  0  0  0  0
 18 43  1  0  0  0  0
 18 44  1  0  0  0  0
 19 20  2  0  0  0  0
 19 45  1  0  0  0  0
 20 21  1  0  0  0  0
 20 46  1  0  0  0  0
 21 22  2  0  0  0  0
 21 47  1  0  0  0  0
 22 48  1  0  0  0  0
 23 49  1  0  0  0  0
 24 50  1  0  0  0  0
 24 51  1  0  0  0  0
 25 52  1  0  0  0  0
 25 53  1  0  0  0  0
 26 54  1  0  0  0  0
M  CHG  1  24   1
M  END
>  <COMPND>
    title: molecule 1

$$$$
8BXO_ligand0.pdb
 OpenBabel06042612053D

 56 59  0  0  0  0  0  0  0  0999 V2000
  -18.9580  -22.5090   -6.1460 C   0  0  0  0  0  0  0  0  0  0  0  0
  -18.4290  -23.4820   -5.3100 C   0  0  0  0  0  0  0  0  0  0  0  0
  -18.0900  -23.1720   -3.9880 C   0  0  0  0  0  0  0  0  0  0  0  0
  -18.2750  -21.8870   -3.5320 C   0  0  0  0  0  0  0  0  0  0  0  0
  -18.0950  -22.3670   -1.0460 C   0  0  0  0  0  0  0  0  0  0  0  0
  -17.8280  -21.7000    0.3160 C   0  0  0  0  0  0  0  0  0  0  0  0
  -17.3700  -22.7100    1.3670 C   0  0  0  0  0  0  0  0  0  0  0  0
  -17.4150  -22.0930    2.7480 C   0  0  0  0  0  0  0  0  0  0  0  0
  -18.7850  -21.5130    3.0880 C   0  0  0  0  0  0  0  0  0  0  0  0
  -19.2690  -20.5250    2.0380 C   0  0  0  0  0  0  0  0  0  0  0  0
  -19.2320  -21.2010    0.6790 C   0  0  0  0  0  0  0  0  0  0  0  0
  -20.7810  -16.5630   -7.2280 C   0  0  0  0  0  0  0  0  0  0  0  0
  -20.4440  -18.0170   -7.2100 C   0  0  0  0  0  0  0  0  0  0  0  0
  -19.8790  -18.7390   -6.1340 C   0  0  0  0  0  0  0  0  0  0  0  0
  -19.7220  -20.1760   -6.5600 C   0  0  0  0  0  0  0  0  0  0  0  0
  -20.1350  -20.4030   -7.9030 C   0  0  0  0  0  0  0  0  0  0  0  0
  -19.1410  -21.2330   -5.6550 C   0  0  0  0  0  0  0  0  0  0  0  0
  -15.6750  -20.6420    0.0420 C   0  0  0  0  0  0  0  0  0  0  0  0
  -14.9080  -19.6370    0.6000 C   0  0  0  0  0  0  0  0  0  0  0  0
  -13.5240  -19.7130    0.4810 C   0  0  0  0  0  0  0  0  0  0  0  0
  -12.9470  -20.7620   -0.2180 C   0  0  0  0  0  0  0  0  0  0  0  0
  -13.7220  -21.7560   -0.8040 C   0  0  0  0  0  0  0  0  0  0  0  0
  -15.1060  -21.6980   -0.6750 C   0  0  0  0  0  0  0  0  0  0  0  0
  -18.8360  -20.9130   -4.3440 C   0  0  0  0  0  0  0  0  0  0  0  0
  -18.7430  -20.8910    4.3070 F   0  0  0  0  0  0  0  0  0  0  0  0
  -19.6800  -22.5510    3.1490 F   0  0  0  0  0  0  0  0  0  0  0  0
  -20.5100  -15.7760   -6.0540 N   0  3  0  0  0  0  0  0  0  0  0  0
  -21.2530  -16.1130   -8.2940 N   0  0  0  0  0  0  0  0  0  0  0  0
  -17.9810  -21.4760   -2.1700 N   0  0  0  0  0  0  0  0  0  0  0  0
  -18.4550  -23.4980   -1.1530 O   0  0  0  0  0  0  0  0  0  0  0  0
  -17.0650  -20.5150    0.2120 O   0  0  0  0  0  0  0  0  0  0  0  0
  -20.6880  -18.9950   -8.4960 S   0  0  0  0  0  0  0  0  0  0  0  0
  -19.2070  -22.7720   -7.1620 H   0  0  0  0  0  0  0  0  0  0  0  0
  -18.2770  -24.4840   -5.6830 H   0  0  0  0  0  0  0  0  0  0  0  0
  -17.6440  -23.9420   -3.3800 H   0  0  0  0  0  0  0  0  0  0  0  0
  -16.3660  -23.0800    1.1730 H   0  0  0  0  0  0  0  0  0  0  0  0
  -18.0100  -23.5930    1.3650 H   0  0  0  0  0  0  0  0  0  0  0  0
  -16.6630  -21.3060    2.8170 H   0  0  0  0  0  0  0  0  0  0  0  0
  -17.1520  -22.8230    3.5070 H   0  0  0  0  0  0  0  0  0  0  0  0
  -18.6430  -19.6310    2.0410 H   0  0  0  0  0  0  0  0  0  0  0  0
  -20.2830  -20.1960    2.2670 H   0  0  0  0  0  0  0  0  0  0  0  0
  -19.9350  -22.0330    0.6930 H   0  0  0  0  0  0  0  0  0  0  0  0
  -19.5970  -20.4900   -0.0600 H   0  0  0  0  0  0  0  0  0  0  0  0
  -19.6530  -18.3740   -5.1580 H   0  0  0  0  0  0  0  0  0  0  0  0
  -20.1400  -21.3020   -8.5000 H   0  0  0  0  0  0  0  0  0  0  0  0
  -15.3680  -18.8310    1.1520 H   0  0  0  0  0  0  0  0  0  0  0  0
  -12.9180  -18.9330    0.9120 H   0  0  0  0  0  0  0  0  0  0  0  0
  -11.8710  -20.8060   -0.3140 H   0  0  0  0  0  0  0  0  0  0  0  0
  -13.2640  -22.5580   -1.3590 H   0  0  0  0  0  0  0  0  0  0  0  0
  -15.6510  -22.4990   -1.1350 H   0  0  0  0  0  0  0  0  0  0  0  0
  -19.0050  -19.9290   -3.9400 H   0  0  0  0  0  0  0  0  0  0  0  0
  -20.6920  -14.7710   -6.0620 H   0  0  0  0  0  0  0  0  0  0  0  0
  -20.0590  -16.1950   -5.2480 H   0  0  0  0  0  0  0  0  0  0  0  0
  -21.4760  -15.1230   -8.3560 H   0  0  0  0  0  0  0  0  0  0  0  0
  -21.4350  -16.7150   -9.0930 H   0  0  0  0  0  0  0  0  0  0  0  0
  -17.7920  -20.4960   -2.0000 H   0  0  0  0  0  0  0  0  0  0  0  0
  1  2  2  0  0  0  0
  1 17  1  0  0  0  0
  1 33  1  0  0  0  0
  2  3  1  0  0  0  0
  2 34  1  0  0  0  0
  3  4  2  0  0  0  0
  3 35  1  0  0  0  0
  4 24  1  0  0  0  0
  4 29  1  0  0  0  0
  5  6  1  0  0  0  0
  5 29  1  0  0  0  0
  5 30  2  0  0  0  0
  6  7  1  0  0  0  0
  6 11  1  0  0  0  0
  6 31  1  0  0  0  0
  7  8  1  0  0  0  0
  7 36  1  0  0  0  0
  7 37  1  0  0  0  0
  8  9  1  0  0  0  0
  8 38  1  0  0  0  0
  8 39  1  0  0  0  0
  9 10  1  0  0  0  0
  9 25  1  0  0  0  0
  9 26  1  0  0  0  0
 10 11  1  0  0  0  0
 10 40  1  0  0  0  0
 10 41  1  0  0  0  0
 11 42  1  0  0  0  0
 11 43  1  0  0  0  0
 12 13  1  0  0  0  0
 12 27  2  0  0  0  0
 12 28  1  0  0  0  0
 13 14  2  0  0  0  0
 13 32  1  0  0  0  0
 14 15  1  0  0  0  0
 14 44  1  0  0  0  0
 15 16  2  0  0  0  0
 15 17  1  0  0  0  0
 16 32  1  0  0  0  0
 16 45  1  0  0  0  0
 17 24  2  0  0  0  0
 18 19  2  0  0  0  0
 18 23  1  0  0  0  0
 18 31  1  0  0  0  0
 19 20  1  0  0  0  0
 19 46  1  0  0  0  0
 20 21  2  0  0  0  0
 20 47  1  0  0  0  0
 21 22  1  0  0  0  0
 21 48  1  0  0  0  0
 22 23  2  0  0  0  0
 22 49  1  0  0  0  0
 23 50  1  0  0  0  0
 24 51  1  0  0  0  0
 27 52  1  0  0  0  0
 27 53  1  0  0  0  0
 28 54  1  0  0  0  0
 28 55  1  0  0  0  0
 29 56  1  0  0  0  0
M  CHG  1  27   1
M  END
>  <COMPND>
    title: molecule 1

$$$$
8BXQ_ligand0.pdb
 OpenBabel06042612053D

 56 59  0  0  0  0  0  0  0  0999 V2000
  -22.5570  -23.4990    5.1670 C   0  0  0  0  0  0  0  0  0  0  0  0
  -22.9030  -23.1570    3.8610 C   0  0  0  0  0  0  0  0  0  0  0  0
  -20.3170  -16.4960    7.0980 C   0  0  0  0  0  0  0  0  0  0  0  0
  -20.6090  -17.9910    7.1310 C   0  0  0  0  0  0  0  0  0  0  0  0
  -21.1650  -18.7340    6.0600 C   0  0  0  0  0  0  0  0  0  0  0  0
  -21.3000  -20.1840    6.4910 C   0  0  0  0  0  0  0  0  0  0  0  0
  -20.8610  -20.4040    7.8220 C   0  0  0  0  0  0  0  0  0  0  0  0
  -21.8710  -21.2490    5.5690 C   0  0  0  0  0  0  0  0  0  0  0  0
  -22.0390  -22.5410    6.0290 C   0  0  0  0  0  0  0  0  0  0  0  0
  -22.7430  -21.8510    3.4420 C   0  0  0  0  0  0  0  0  0  0  0  0
  -22.8740  -22.2830    0.9330 C   0  0  0  0  0  0  0  0  0  0  0  0
  -23.1620  -21.6090   -0.4240 C   0  0  0  0  0  0  0  0  0  0  0  0
  -23.6030  -22.6060   -1.4960 C   0  0  0  0  0  0  0  0  0  0  0  0
  -23.6200  -21.9360   -2.8680 C   0  0  0  0  0  0  0  0  0  0  0  0
  -22.2880  -21.2600   -3.2140 C   0  0  0  0  0  0  0  0  0  0  0  0
  -21.8110  -20.3080   -2.1250 C   0  0  0  0  0  0  0  0  0  0  0  0
  -21.7830  -21.0510   -0.7990 C   0  0  0  0  0  0  0  0  0  0  0  0
  -25.3630  -20.6680   -0.0610 C   0  0  0  0  0  0  0  0  0  0  0  0
  -25.8780  -21.7830    0.5920 C   0  0  0  0  0  0  0  0  0  0  0  0
  -27.2580  -21.9260    0.7450 C   0  0  0  0  0  0  0  0  0  0  0  0
  -28.1030  -20.9380    0.2590 C   0  0  0  0  0  0  0  0  0  0  0  0
  -27.5810  -19.8190   -0.3790 C   0  0  0  0  0  0  0  0  0  0  0  0
  -26.2050  -19.6720   -0.5250 C   0  0  0  0  0  0  0  0  0  0  0  0
  -22.2020  -20.8920    4.2800 C   0  0  0  0  0  0  0  0  0  0  0  0
  -19.7880  -15.9160    8.3100 N   0  3  0  0  0  0  0  0  0  0  0  0
  -20.5380  -15.7650    6.0830 N   0  0  0  0  0  0  0  0  0  0  0  0
  -23.0370  -21.3980    2.0840 N   0  0  0  0  0  0  0  0  0  0  0  0
  -22.5000  -23.4190    1.0300 O   0  0  0  0  0  0  0  0  0  0  0  0
  -23.9940  -20.4630   -0.2530 O   0  0  0  0  0  0  0  0  0  0  0  0
  -20.3380  -18.9780    8.4110 S   0  0  0  0  0  0  0  0  0  0  0  0
  -22.6910  -24.5150    5.5090 H   0  0  0  0  0  0  0  0  0  0  0  0
  -23.3420  -23.9120    3.2310 H   0  0  0  0  0  0  0  0  0  0  0  0
  -21.4230  -18.3430    5.0940 H   0  0  0  0  0  0  0  0  0  0  0  0
  -20.8230  -21.3040    8.4170 H   0  0  0  0  0  0  0  0  0  0  0  0
  -21.7650  -22.8270    7.0330 H   0  0  0  0  0  0  0  0  0  0  0  0
  -24.5800  -23.0380   -1.2920 H   0  0  0  0  0  0  0  0  0  0  0  0
  -22.9130  -23.4500   -1.5360 H   0  0  0  0  0  0  0  0  0  0  0  0
  -24.4190  -21.1940   -2.8990 H   0  0  0  0  0  0  0  0  0  0  0  0
  -23.8590  -22.6690   -3.6350 H   0  0  0  0  0  0  0  0  0  0  0  0
  -22.3530  -20.7210   -4.1520 H   0  0  0  0  0  0  0  0  0  0  0  0
  -21.5320  -22.0310   -3.3680 H   0  0  0  0  0  0  0  0  0  0  0  0
  -22.4690  -19.4390   -2.0680 H   0  0  0  0  0  0  0  0  0  0  0  0
  -20.8170  -19.9320   -2.3660 H   0  0  0  0  0  0  0  0  0  0  0  0
  -21.0470  -21.8530   -0.8670 H   0  0  0  0  0  0  0  0  0  0  0  0
  -21.4280  -20.3600   -0.0390 H   0  0  0  0  0  0  0  0  0  0  0  0
  -25.2980  -22.5980    0.9790 H   0  0  0  0  0  0  0  0  0  0  0  0
  -27.6470  -22.7900    1.2530 H   0  0  0  0  0  0  0  0  0  0  0  0
  -29.1720  -21.0420    0.3740 H   0  0  0  0  0  0  0  0  0  0  0  0
  -28.2410  -19.0490   -0.7460 H   0  0  0  0  0  0  0  0  0  0  0  0
  -25.8060  -18.8170   -1.0480 H   0  0  0  0  0  0  0  0  0  0  0  0
  -22.0540  -19.8970    3.8970 H   0  0  0  0  0  0  0  0  0  0  0  0
  -19.5840  -14.9160    8.3460 H   0  0  0  0  0  0  0  0  0  0  0  0
  -19.5440  -16.4990    9.1080 H   0  0  0  0  0  0  0  0  0  0  0  0
  -20.3540  -14.7620    6.1260 H   0  0  0  0  0  0  0  0  0  0  0  0
  -20.9510  -16.1620    5.2510 H   0  0  0  0  0  0  0  0  0  0  0  0
  -23.2230  -20.4160    1.9280 H   0  0  0  0  0  0  0  0  0  0  0  0
  1  2  2  0  0  0  0
  1  9  1  0  0  0  0
  1 31  1  0  0  0  0
  2 10  1  0  0  0  0
  2 32  1  0  0  0  0
  3  4  1  0  0  0  0
  3 25  2  0  0  0  0
  3 26  1  0  0  0  0
  4  5  2  0  0  0  0
  4 30  1  0  0  0  0
  5  6  1  0  0  0  0
  5 33  1  0  0  0  0
  6  7  2  0  0  0  0
  6  8  1  0  0  0  0
  7 30  1  0  0  0  0
  7 34  1  0  0  0  0
  8  9  2  0  0  0  0
  8 24  1  0  0  0  0
  9 35  1  0  0  0  0
 10 24  2  0  0  0  0
 10 27  1  0  0  0  0
 11 12  1  0  0  0  0
 11 27  1  0  0  0  0
 11 28  2  0  0  0  0
 12 13  1  0  0  0  0
 12 17  1  0  0  0  0
 12 29  1  0  0  0  0
 13 14  1  0  0  0  0
 13 36  1  0  0  0  0
 13 37  1  0  0  0  0
 14 15  1  0  0  0  0
 14 38  1  0  0  0  0
 14 39  1  0  0  0  0
 15 16  1  0  0  0  0
 15 40  1  0  0  0  0
 15 41  1  0  0  0  0
 16 17  1  0  0  0  0
 16 42  1  0  0  0  0
 16 43  1  0  0  0  0
 17 44  1  0  0  0  0
 17 45  1  0  0  0  0
 18 19  2  0  0  0  0
 18 23  1  0  0  0  0
 18 29  1  0  0  0  0
 19 20  1  0  0  0  0
 19 46  1  0  0  0  0
 20 21  2  0  0  0  0
 20 47  1  0  0  0  0
 21 22  1  0  0  0  0
 21 48  1  0  0  0  0
 22 23  2  0  0  0  0
 22 49  1  0  0  0  0
 23 50  1  0  0  0  0
 24 51  1  0  0  0  0
 25 52  1  0  0  0  0
 25 53  1  0  0  0  0
 26 54  1  0  0  0  0
 26 55  1  0  0  0  0
 27 56  1  0  0  0  0
M  CHG  1  25   1
M  END
>  <COMPND>
    title: molecule 1

$$$$
8BXS_ligand0.pdb
 OpenBabel06042612053D

 54 57  0  0  0  0  0  0  0  0999 V2000
   20.4130  -16.1940   -6.9320 C   0  0  0  0  0  0  0  0  0  0  0  0
   20.6430  -17.6630   -6.8750 C   0  0  0  0  0  0  0  0  0  0  0  0
   21.3270  -18.2750   -5.8060 C   0  0  0  0  0  0  0  0  0  0  0  0
   21.4140  -19.7430   -6.0240 C   0  0  0  0  0  0  0  0  0  0  0  0
   20.7900  -20.1320   -7.2340 C   0  0  0  0  0  0  0  0  0  0  0  0
   22.1010  -20.6220   -5.0050 C   0  0  0  0  0  0  0  0  0  0  0  0
   21.9410  -21.9800   -5.0730 C   0  0  0  0  0  0  0  0  0  0  0  0
   22.5650  -22.7780   -4.1320 C   0  0  0  0  0  0  0  0  0  0  0  0
   23.3200  -22.2050   -3.1370 C   0  0  0  0  0  0  0  0  0  0  0  0
   23.4670  -20.8380   -3.0520 C   0  0  0  0  0  0  0  0  0  0  0  0
   24.3890  -18.9840   -1.4610 C   0  0  0  0  0  0  0  0  0  0  0  0
   25.4740  -18.7630   -0.3870 C   0  0  0  0  0  0  0  0  0  0  0  0
   25.2690  -17.5610    0.4030 C   0  0  0  0  0  0  0  0  0  0  0  0
   26.3930  -17.3070    1.3590 C   0  0  0  0  0  0  0  0  0  0  0  0
   27.9910  -18.3050   -0.2140 C   0  0  0  0  0  0  0  0  0  0  0  0
   26.8050  -18.6560   -1.1430 C   0  0  0  0  0  0  0  0  0  0  0  0
   24.5940  -20.5240    1.1240 C   0  0  0  0  0  0  0  0  0  0  0  0
   23.2970  -20.0210    1.1360 C   0  0  0  0  0  0  0  0  0  0  0  0
   22.2940  -20.6380    1.8840 C   0  0  0  0  0  0  0  0  0  0  0  0
   22.6180  -21.7670    2.6140 C   0  0  0  0  0  0  0  0  0  0  0  0
   23.8940  -22.2850    2.6070 C   0  0  0  0  0  0  0  0  0  0  0  0
   24.8850  -21.6490    1.8850 C   0  0  0  0  0  0  0  0  0  0  0  0
   22.8640  -20.0220   -4.0080 C   0  0  0  0  0  0  0  0  0  0  0  0
   19.7950  -15.6660   -8.1130 N   0  3  0  0  0  0  0  0  0  0  0  0
   20.7910  -15.4810   -5.9520 N   0  0  0  0  0  0  0  0  0  0  0  0
   24.3340  -20.3350   -1.9920 N   0  0  0  0  0  0  0  0  0  0  0  0
   23.6370  -18.1220   -1.7990 O   0  0  0  0  0  0  0  0  0  0  0  0
   27.6630  -17.1700    0.6490 O   0  0  0  0  0  0  0  0  0  0  0  0
   25.6780  -19.9460    0.4280 O   0  0  0  0  0  0  0  0  0  0  0  0
   20.1920  -18.7760   -7.9620 S   0  0  0  0  0  0  0  0  0  0  0  0
   21.3540  -22.5840    3.5410 Cl  0  0  0  0  0  0  0  0  0  0  0  0
   21.7000  -17.7610   -4.9380 H   0  0  0  0  0  0  0  0  0  0  0  0
   20.6630  -21.1110   -7.6600 H   0  0  0  0  0  0  0  0  0  0  0  0
   21.3400  -22.4380   -5.8450 H   0  0  0  0  0  0  0  0  0  0  0  0
   22.4570  -23.8510   -4.1760 H   0  0  0  0  0  0  0  0  0  0  0  0
   23.8120  -22.8470   -2.4260 H   0  0  0  0  0  0  0  0  0  0  0  0
   24.3430  -17.5960    0.9650 H   0  0  0  0  0  0  0  0  0  0  0  0
   25.1900  -16.6890   -0.2470 H   0  0  0  0  0  0  0  0  0  0  0  0
   26.4740  -18.1150    2.0870 H   0  0  0  0  0  0  0  0  0  0  0  0
   26.2140  -16.3970    1.9270 H   0  0  0  0  0  0  0  0  0  0  0  0
   28.8830  -18.0760   -0.7950 H   0  0  0  0  0  0  0  0  0  0  0  0
   28.2270  -19.1600    0.4190 H   0  0  0  0  0  0  0  0  0  0  0  0
   26.7340  -17.8740   -1.9020 H   0  0  0  0  0  0  0  0  0  0  0  0
   27.0310  -19.5780   -1.6810 H   0  0  0  0  0  0  0  0  0  0  0  0
   22.9810  -19.1390    0.6090 H   0  0  0  0  0  0  0  0  0  0  0  0
   21.2900  -20.2390    1.8930 H   0  0  0  0  0  0  0  0  0  0  0  0
   24.1020  -23.1410    3.2110 H   0  0  0  0  0  0  0  0  0  0  0  0
   25.8750  -22.0470    1.8810 H   0  0  0  0  0  0  0  0  0  0  0  0
   23.0270  -18.9600   -3.9770 H   0  0  0  0  0  0  0  0  0  0  0  0
   19.6200  -14.6620   -8.1820 H   0  0  0  0  0  0  0  0  0  0  0  0
   19.4770  -16.2790   -8.8560 H   0  0  0  0  0  0  0  0  0  0  0  0
   20.6380  -14.4750   -5.9780 H   0  0  0  0  0  0  0  0  0  0  0  0
   21.3280  -15.8760   -5.1870 H   0  0  0  0  0  0  0  0  0  0  0  0
   24.9580  -21.0130   -1.5720 H   0  0  0  0  0  0  0  0  0  0  0  0
  1  2  1  0  0  0  0
  1 24  2  0  0  0  0
  1 25  1  0  0  0  0
  2  3  2  0  0  0  0
  2 30  1  0  0  0  0
  3  4  1  0  0  0  0
  3 32  1  0  0  0  0
  4  5  2  0  0  0  0
  4  6  1  0  0  0  0
  5 30  1  0  0  0  0
  5 33  1  0  0  0  0
  6  7  2  0  0  0  0
  6 23  1  0  0  0  0
  7  8  1  0  0  0  0
  7 34  1  0  0  0  0
  8  9  2  0  0  0  0
  8 35  1  0  0  0  0
  9 10  1  0  0  0  0
  9 36  1  0  0  0  0
 10 23  2  0  0  0  0
 10 26  1  0  0  0  0
 11 12  1  0  0  0  0
 11 26  1  0  0  0  0
 11 27  2  0  0  0  0
 12 13  1  0  0  0  0
 12 16  1  0  0  0  0
 12 29  1  0  0  0  0
 13 14  1  0  0  0  0
 13 37  1  0  0  0  0
 13 38  1  0  0  0  0
 14 28  1  0  0  0  0
 14 39  1  0  0  0  0
 14 40  1  0  0  0  0
 15 16  1  0  0  0  0
 15 28  1  0  0  0  0
 15 41  1  0  0  0  0
 15 42  1  0  0  0  0
 16 43  1  0  0  0  0
 16 44  1  0  0  0  0
 17 18  2  0  0  0  0
 17 22  1  0  0  0  0
 17 29  1  0  0  0  0
 18 19  1  0  0  0  0
 18 45  1  0  0  0  0
 19 20  2  0  0  0  0
 19 46  1  0  0  0  0
 20 21  1  0  0  0  0
 20 31  1  0  0  0  0
 21 22  2  0  0  0  0
 21 47  1  0  0  0  0
 22 48  1  0  0  0  0
 23 49  1  0  0  0  0
 24 50  1  0  0  0  0
 24 51  1  0  0  0  0
 25 52  1  0  0  0  0
 25 53  1  0  0  0  0
 26 54  1  0  0  0  0
M  CHG  1  24   1
M  END
>  <COMPND>
    title: molecule 1

$$$$
8BY9_ligand0.pdb
 OpenBabel06042612053D

 56 59  0  0  0  0  0  0  0  0999 V2000
  -18.3930   22.1910    6.1410 C   0  0  0  0  0  0  0  0  0  0  0  0
  -17.7430   23.0970    5.3140 C   0  0  0  0  0  0  0  0  0  0  0  0
  -17.5980   22.8190    3.9650 C   0  0  0  0  0  0  0  0  0  0  0  0
  -18.0950   21.6370    3.4690 C   0  0  0  0  0  0  0  0  0  0  0  0
  -18.0900   22.2020    0.9980 C   0  0  0  0  0  0  0  0  0  0  0  0
  -17.9660   21.5720   -0.3900 C   0  0  0  0  0  0  0  0  0  0  0  0
  -17.3510   22.5270   -1.4230 C   0  0  0  0  0  0  0  0  0  0  0  0
  -17.4680   21.9630   -2.8440 C   0  0  0  0  0  0  0  0  0  0  0  0
  -18.8670   21.4470   -3.1840 C   0  0  0  0  0  0  0  0  0  0  0  0
  -20.6880   16.3950    7.0830 C   0  0  0  0  0  0  0  0  0  0  0  0
  -20.3750   17.8570    7.1200 C   0  0  0  0  0  0  0  0  0  0  0  0
  -19.7090   18.5560    6.0720 C   0  0  0  0  0  0  0  0  0  0  0  0
  -19.5860   20.0020    6.4900 C   0  0  0  0  0  0  0  0  0  0  0  0
  -20.1170   20.2640    7.7800 C   0  0  0  0  0  0  0  0  0  0  0  0
  -18.8980   21.0230    5.6080 C   0  0  0  0  0  0  0  0  0  0  0  0
  -19.4660   20.5600   -2.0960 C   0  0  0  0  0  0  0  0  0  0  0  0
  -19.4170   21.2700   -0.7560 C   0  0  0  0  0  0  0  0  0  0  0  0
  -15.9140   20.3040   -0.1450 C   0  0  0  0  0  0  0  0  0  0  0  0
  -15.2530   21.3020    0.5670 C   0  0  0  0  0  0  0  0  0  0  0  0
  -13.8860   21.2280    0.7240 C   0  0  0  0  0  0  0  0  0  0  0  0
  -13.1990   20.1540    0.1990 C   0  0  0  0  0  0  0  0  0  0  0  0
  -13.8440   19.1500   -0.4840 C   0  0  0  0  0  0  0  0  0  0  0  0
  -15.2140   19.2460   -0.6260 C   0  0  0  0  0  0  0  0  0  0  0  0
  -18.7410   20.7210    4.2870 C   0  0  0  0  0  0  0  0  0  0  0  0
  -18.8940   20.7380   -4.3600 F   0  0  0  0  0  0  0  0  0  0  0  0
  -19.6710   22.5260   -3.3960 F   0  0  0  0  0  0  0  0  0  0  0  0
  -21.2990   15.8060    8.2500 N   0  3  0  0  0  0  0  0  0  0  0  0
  -20.3870   15.7230    6.0680 N   0  0  0  0  0  0  0  0  0  0  0  0
  -17.9760   21.2640    2.0880 N   0  0  0  0  0  0  0  0  0  0  0  0
  -18.3060   23.3610    1.1560 O   0  0  0  0  0  0  0  0  0  0  0  0
  -17.3270   20.2990   -0.3380 O   0  0  0  0  0  0  0  0  0  0  0  0
  -20.7130   18.8650    8.3410 S   0  0  0  0  0  0  0  0  0  0  0  0
  -11.4460   20.0840    0.4270 Cl  0  0  0  0  0  0  0  0  0  0  0  0
  -18.4920   22.4110    7.1930 H   0  0  0  0  0  0  0  0  0  0  0  0
  -17.3480   24.0160    5.7210 H   0  0  0  0  0  0  0  0  0  0  0  0
  -17.0690   23.5200    3.3370 H   0  0  0  0  0  0  0  0  0  0  0  0
  -16.3150   22.7860   -1.2190 H   0  0  0  0  0  0  0  0  0  0  0  0
  -17.8850   23.4780   -1.4040 H   0  0  0  0  0  0  0  0  0  0  0  0
  -16.7640   21.1350   -2.9370 H   0  0  0  0  0  0  0  0  0  0  0  0
  -17.1620   22.6980   -3.5840 H   0  0  0  0  0  0  0  0  0  0  0  0
  -19.3770   18.1640    5.1320 H   0  0  0  0  0  0  0  0  0  0  0  0
  -20.1720   21.1790    8.3510 H   0  0  0  0  0  0  0  0  0  0  0  0
  -18.9420   19.6040   -2.0570 H   0  0  0  0  0  0  0  0  0  0  0  0
  -20.5010   20.3230   -2.3460 H   0  0  0  0  0  0  0  0  0  0  0  0
  -19.9980   22.1900   -0.8110 H   0  0  0  0  0  0  0  0  0  0  0  0
  -19.8810   20.6100   -0.0360 H   0  0  0  0  0  0  0  0  0  0  0  0
  -15.6910   22.1830    0.9890 H   0  0  0  0  0  0  0  0  0  0  0  0
  -13.3570   22.0050    1.2570 H   0  0  0  0  0  0  0  0  0  0  0  0
  -13.2980   18.3120   -0.8920 H   0  0  0  0  0  0  0  0  0  0  0  0
  -15.7400   18.4670   -1.1570 H   0  0  0  0  0  0  0  0  0  0  0  0
  -19.1260   19.8130    3.8510 H   0  0  0  0  0  0  0  0  0  0  0  0
  -21.5010   14.8040    8.2720 H   0  0  0  0  0  0  0  0  0  0  0  0
  -21.5510   16.3790    9.0520 H   0  0  0  0  0  0  0  0  0  0  0  0
  -20.5720   14.7220    6.0560 H   0  0  0  0  0  0  0  0  0  0  0  0
  -19.8840   16.1480    5.2990 H   0  0  0  0  0  0  0  0  0  0  0  0
  -17.9120   20.2780    1.8700 H   0  0  0  0  0  0  0  0  0  0  0  0
  1  2  2  0  0  0  0
  1 15  1  0  0  0  0
  1 34  1  0  0  0  0
  2  3  1  0  0  0  0
  2 35  1  0  0  0  0
  3  4  2  0  0  0  0
  3 36  1  0  0  0  0
  4 24  1  0  0  0  0
  4 29  1  0  0  0  0
  5  6  1  0  0  0  0
  5 29  1  0  0  0  0
  5 30  2  0  0  0  0
  6  7  1  0  0  0  0
  6 17  1  0  0  0  0
  6 31  1  0  0  0  0
  7  8  1  0  0  0  0
  7 37  1  0  0  0  0
  7 38  1  0  0  0  0
  8  9  1  0  0  0  0
  8 39  1  0  0  0  0
  8 40  1  0  0  0  0
  9 16  1  0  0  0  0
  9 25  1  0  0  0  0
  9 26  1  0  0  0  0
 10 11  1  0  0  0  0
 10 27  2  0  0  0  0
 10 28  1  0  0  0  0
 11 12  2  0  0  0  0
 11 32  1  0  0  0  0
 12 13  1  0  0  0  0
 12 41  1  0  0  0  0
 13 14  2  0  0  0  0
 13 15  1  0  0  0  0
 14 32  1  0  0  0  0
 14 42  1  0  0  0  0
 15 24  2  0  0  0  0
 16 17  1  0  0  0  0
 16 43  1  0  0  0  0
 16 44  1  0  0  0  0
 17 45  1  0  0  0  0
 17 46  1  0  0  0  0
 18 19  2  0  0  0  0
 18 23  1  0  0  0  0
 18 31  1  0  0  0  0
 19 20  1  0  0  0  0
 19 47  1  0  0  0  0
 20 21  2  0  0  0  0
 20 48  1  0  0  0  0
 21 22  1  0  0  0  0
 21 33  1  0  0  0  0
 22 23  2  0  0  0  0
 22 49  1  0  0  0  0
 23 50  1  0  0  0  0
 24 51  1  0  0  0  0
 27 52  1  0  0  0  0
 27 53  1  0  0  0  0
 28 54  1  0  0  0  0
 28 55  1  0  0  0  0
 29 56  1  0  0  0  0
M  CHG  1  27   1
M  END
>  <COMPND>
    title: molecule 1

$$$$
8BYB_ligand0.pdb
 OpenBabel06042612053D

 56 59  0  0  0  0  0  0  0  0999 V2000
  -18.9830   21.8300    5.0250 C   0  0  0  0  0  0  0  0  0  0  0  0
  -17.5280   22.0990    3.1510 C   0  0  0  0  0  0  0  0  0  0  0  0
  -15.7420   17.4480   -0.4960 C   0  0  0  0  0  0  0  0  0  0  0  0
  -14.6330   17.0480   -1.4990 C   0  0  0  0  0  0  0  0  0  0  0  0
  -13.2060   17.0330   -0.9720 C   0  0  0  0  0  0  0  0  0  0  0  0
  -12.9260   18.1780    0.0260 C   0  0  0  0  0  0  0  0  0  0  0  0
  -16.4950   18.9060    1.4430 C   0  0  0  0  0  0  0  0  0  0  0  0
  -15.4000   18.6760    0.3470 C   0  0  0  0  0  0  0  0  0  0  0  0
  -16.3810   20.4640   -1.1460 C   0  0  0  0  0  0  0  0  0  0  0  0
  -16.1010   21.5610   -1.9020 C   0  0  0  0  0  0  0  0  0  0  0  0
  -17.9800   19.9050    3.9760 C   0  0  0  0  0  0  0  0  0  0  0  0
  -20.5600   16.0240    6.9450 C   0  0  0  0  0  0  0  0  0  0  0  0
  -20.3250   17.5160    6.8270 C   0  0  0  0  0  0  0  0  0  0  0  0
  -19.5720   18.0930    5.7470 C   0  0  0  0  0  0  0  0  0  0  0  0
  -19.5070   19.6000    5.9410 C   0  0  0  0  0  0  0  0  0  0  0  0
  -20.2180   20.0360    7.1240 C   0  0  0  0  0  0  0  0  0  0  0  0
  -18.7920   20.4900    4.9510 C   0  0  0  0  0  0  0  0  0  0  0  0
  -18.3430   22.6610    4.1240 C   0  0  0  0  0  0  0  0  0  0  0  0
  -17.3530   20.7450    3.0750 C   0  0  0  0  0  0  0  0  0  0  0  0
  -14.0540   18.4790    1.0460 C   0  0  0  0  0  0  0  0  0  0  0  0
  -17.1190   22.2010   -2.6410 C   0  0  0  0  0  0  0  0  0  0  0  0
  -18.4120   21.6970   -2.5960 C   0  0  0  0  0  0  0  0  0  0  0  0
  -18.7320   20.5900   -1.8480 C   0  0  0  0  0  0  0  0  0  0  0  0
  -17.7090   19.9660   -1.1060 C   0  0  0  0  0  0  0  0  0  0  0  0
  -20.0720   15.1680    5.8490 N   0  3  0  0  0  0  0  0  0  0  0  0
  -21.1090   15.5210    8.0150 N   0  0  0  0  0  0  0  0  0  0  0  0
  -16.4460   20.2450    2.0170 N   0  0  0  0  0  0  0  0  0  0  0  0
  -17.3070   18.0720    1.7460 O   0  0  0  0  0  0  0  0  0  0  0  0
  -15.2390   19.8700   -0.4190 O   0  0  0  0  0  0  0  0  0  0  0  0
  -20.8580   18.6910    7.8450 S   0  0  0  0  0  0  0  0  0  0  0  0
  -19.6900   22.5320   -3.5300 Cl  0  0  0  0  0  0  0  0  0  0  0  0
  -19.6280   22.2680    5.7720 H   0  0  0  0  0  0  0  0  0  0  0  0
  -17.0190   22.7520    2.4730 H   0  0  0  0  0  0  0  0  0  0  0  0
  -15.8680   16.5940    0.1680 H   0  0  0  0  0  0  0  0  0  0  0  0
  -16.6800   17.5360   -1.0370 H   0  0  0  0  0  0  0  0  0  0  0  0
  -14.6660   17.7790   -2.3070 H   0  0  0  0  0  0  0  0  0  0  0  0
  -14.8630   16.0960   -1.9630 H   0  0  0  0  0  0  0  0  0  0  0  0
  -12.5180   17.0490   -1.8140 H   0  0  0  0  0  0  0  0  0  0  0  0
  -13.0430   16.0860   -0.4570 H   0  0  0  0  0  0  0  0  0  0  0  0
  -12.7580   19.0880   -0.5480 H   0  0  0  0  0  0  0  0  0  0  0  0
  -11.9960   17.9820    0.5570 H   0  0  0  0  0  0  0  0  0  0  0  0
  -15.1240   21.9600   -1.8660 H   0  0  0  0  0  0  0  0  0  0  0  0
  -17.8050   18.8450    3.9580 H   0  0  0  0  0  0  0  0  0  0  0  0
  -19.1310   17.5530    4.9260 H   0  0  0  0  0  0  0  0  0  0  0  0
  -20.3660   21.0220    7.5380 H   0  0  0  0  0  0  0  0  0  0  0  0
  -18.4760   23.7320    4.1750 H   0  0  0  0  0  0  0  0  0  0  0  0
  -13.7860   19.3600    1.6320 H   0  0  0  0  0  0  0  0  0  0  0  0
  -14.1190   17.6490    1.7520 H   0  0  0  0  0  0  0  0  0  0  0  0
  -16.9240   23.0600   -3.2510 H   0  0  0  0  0  0  0  0  0  0  0  0
  -19.7420   20.2080   -1.8250 H   0  0  0  0  0  0  0  0  0  0  0  0
  -18.0130   19.0970   -0.5540 H   0  0  0  0  0  0  0  0  0  0  0  0
  -20.2310   14.1590    5.9050 H   0  0  0  0  0  0  0  0  0  0  0  0
  -19.5560   15.5500    5.0660 H   0  0  0  0  0  0  0  0  0  0  0  0
  -21.2790   14.5140    8.0790 H   0  0  0  0  0  0  0  0  0  0  0  0
  -21.4020   16.1250    8.7760 H   0  0  0  0  0  0  0  0  0  0  0  0
  -15.7880   20.9070    1.6220 H   0  0  0  0  0  0  0  0  0  0  0  0
  1 17  2  0  0  0  0
  1 18  1  0  0  0  0
  1 32  1  0  0  0  0
  2 18  2  0  0  0  0
  2 19  1  0  0  0  0
  2 33  1  0  0  0  0
  3  4  1  0  0  0  0
  3  8  1  0  0  0  0
  3 34  1  0  0  0  0
  3 35  1  0  0  0  0
  4  5  1  0  0  0  0
  4 36  1  0  0  0  0
  4 37  1  0  0  0  0
  5  6  1  0  0  0  0
  5 38  1  0  0  0  0
  5 39  1  0  0  0  0
  6 20  1  0  0  0  0
  6 40  1  0  0  0  0
  6 41  1  0  0  0  0
  7  8  1  0  0  0  0
  7 27  1  0  0  0  0
  7 28  2  0  0  0  0
  8 20  1  0  0  0  0
  8 29  1  0  0  0  0
  9 10  2  0  0  0  0
  9 24  1  0  0  0  0
  9 29  1  0  0  0  0
 10 21  1  0  0  0  0
 10 42  1  0  0  0  0
 11 17  1  0  0  0  0
 11 19  2  0  0  0  0
 11 43  1  0  0  0  0
 12 13  1  0  0  0  0
 12 25  2  0  0  0  0
 12 26  1  0  0  0  0
 13 14  2  0  0  0  0
 13 30  1  0  0  0  0
 14 15  1  0  0  0  0
 14 44  1  0  0  0  0
 15 16  2  0  0  0  0
 15 17  1  0  0  0  0
 16 30  1  0  0  0  0
 16 45  1  0  0  0  0
 18 46  1  0  0  0  0
 19 27  1  0  0  0  0
 20 47  1  0  0  0  0
 20 48  1  0  0  0  0
 21 22  2  0  0  0  0
 21 49  1  0  0  0  0
 22 23  1  0  0  0  0
 22 31  1  0  0  0  0
 23 24  2  0  0  0  0
 23 50  1  0  0  0  0
 24 51  1  0  0  0  0
 25 52  1  0  0  0  0
 25 53  1  0  0  0  0
 26 54  1  0  0  0  0
 26 55  1  0  0  0  0
 27 56  1  0  0  0  0
M  CHG  1  25   1
M  END
>  <COMPND>
    title: molecule 1

$$$$
8BYC_ligand0.pdb
 OpenBabel06042612053D

 57 60  0  0  0  0  0  0  0  0999 V2000
   18.9090   21.9010   -5.0940 C   0  0  0  0  0  0  0  0  0  0  0  0
   18.2330   22.7340   -4.2180 C   0  0  0  0  0  0  0  0  0  0  0  0
   17.3670   22.1850   -3.2920 C   0  0  0  0  0  0  0  0  0  0  0  0
   17.1730   20.8130   -3.2210 C   0  0  0  0  0  0  0  0  0  0  0  0
   16.3070   18.9800   -1.6150 C   0  0  0  0  0  0  0  0  0  0  0  0
   15.2020   18.6900   -0.5730 C   0  0  0  0  0  0  0  0  0  0  0  0
   15.5320   17.4950    0.2390 C   0  0  0  0  0  0  0  0  0  0  0  0
   14.3660   17.0130    1.1030 C   0  0  0  0  0  0  0  0  0  0  0  0
   12.7340   18.1720   -0.3870 C   0  0  0  0  0  0  0  0  0  0  0  0
   13.8870   18.6010   -1.2910 C   0  0  0  0  0  0  0  0  0  0  0  0
   16.2030   20.4950    1.0690 C   0  0  0  0  0  0  0  0  0  0  0  0
   17.4810   19.9350    1.1280 C   0  0  0  0  0  0  0  0  0  0  0  0
   18.4740   20.5510    1.8740 C   0  0  0  0  0  0  0  0  0  0  0  0
   16.9060   22.2750    2.4970 C   0  0  0  0  0  0  0  0  0  0  0  0
   18.1690   21.7290    2.5480 C   0  0  0  0  0  0  0  0  0  0  0  0
   17.8430   19.9690   -4.0880 C   0  0  0  0  0  0  0  0  0  0  0  0
   20.5070   16.0490   -6.9730 C   0  0  0  0  0  0  0  0  0  0  0  0
   20.2800   17.5490   -6.8470 C   0  0  0  0  0  0  0  0  0  0  0  0
   19.4790   18.1170   -5.8170 C   0  0  0  0  0  0  0  0  0  0  0  0
   19.4500   19.6240   -5.9800 C   0  0  0  0  0  0  0  0  0  0  0  0
   20.1970   20.0450   -7.1170 C   0  0  0  0  0  0  0  0  0  0  0  0
   18.6920   20.5390   -5.0300 C   0  0  0  0  0  0  0  0  0  0  0  0
   15.9240   21.6640    1.7500 C   0  0  0  0  0  0  0  0  0  0  0  0
   19.9870   15.2200   -5.9050 N   0  3  0  0  0  0  0  0  0  0  0  0
   21.0790   15.5410   -7.9740 N   0  0  0  0  0  0  0  0  0  0  0  0
   16.2330   20.3080   -2.2150 N   0  0  0  0  0  0  0  0  0  0  0  0
   13.0630   16.9450    0.3780 N   0  3  0  0  0  0  0  0  0  0  0  0
   15.0840   19.9070    0.3140 N   0  0  0  0  0  0  0  0  0  0  0  0
   17.1510   18.1800   -1.8830 O   0  0  0  0  0  0  0  0  0  0  0  0
   20.8520   18.7210   -7.8200 S   0  0  0  0  0  0  0  0  0  0  0  0
   19.4210   22.5710    3.4950 Cl  0  0  0  0  0  0  0  0  0  0  0  0
   19.5910   22.3330   -5.8110 H   0  0  0  0  0  0  0  0  0  0  0  0
   18.3780   23.8030   -4.2640 H   0  0  0  0  0  0  0  0  0  0  0  0
   16.8100   22.8360   -2.6460 H   0  0  0  0  0  0  0  0  0  0  0  0
   16.3930   17.6070    0.8820 H   0  0  0  0  0  0  0  0  0  0  0  0
   15.7760   16.6650   -0.4260 H   0  0  0  0  0  0  0  0  0  0  0  0
   14.2620   17.6170    2.0050 H   0  0  0  0  0  0  0  0  0  0  0  0
   14.5020   15.9970    1.3690 H   0  0  0  0  0  0  0  0  0  0  0  0
   11.8350   17.9950   -0.9770 H   0  0  0  0  0  0  0  0  0  0  0  0
   12.4900   18.9590    0.3260 H   0  0  0  0  0  0  0  0  0  0  0  0
   13.9670   17.8720   -2.0990 H   0  0  0  0  0  0  0  0  0  0  0  0
   13.6310   19.5440   -1.7780 H   0  0  0  0  0  0  0  0  0  0  0  0
   17.7750   19.0530    0.5880 H   0  0  0  0  0  0  0  0  0  0  0  0
   19.4680   20.1300    1.9190 H   0  0  0  0  0  0  0  0  0  0  0  0
   16.7270   23.1620    3.0510 H   0  0  0  0  0  0  0  0  0  0  0  0
   17.6620   18.9090   -4.0790 H   0  0  0  0  0  0  0  0  0  0  0  0
   19.0020   17.6000   -5.0140 H   0  0  0  0  0  0  0  0  0  0  0  0
   20.3840   21.0350   -7.4960 H   0  0  0  0  0  0  0  0  0  0  0  0
   14.9380   22.1020    1.7120 H   0  0  0  0  0  0  0  0  0  0  0  0
   20.1390   14.2100   -5.9400 H   0  0  0  0  0  0  0  0  0  0  0  0
   19.4250   15.6130   -5.1570 H   0  0  0  0  0  0  0  0  0  0  0  0
   21.2390   14.5310   -8.0190 H   0  0  0  0  0  0  0  0  0  0  0  0
   21.4480   16.1330   -8.7080 H   0  0  0  0  0  0  0  0  0  0  0  0
   15.5520   20.9590   -1.8450 H   0  0  0  0  0  0  0  0  0  0  0  0
   12.3390   16.6990    1.0460 H   0  0  0  0  0  0  0  0  0  0  0  0
   13.1380   16.1900   -0.2940 H   0  0  0  0  0  0  0  0  0  0  0  0
   14.2320   20.4470    0.2410 H   0  0  0  0  0  0  0  0  0  0  0  0
  1  2  2  0  0  0  0
  1 22  1  0  0  0  0
  1 32  1  0  0  0  0
  2  3  1  0  0  0  0
  2 33  1  0  0  0  0
  3  4  2  0  0  0  0
  3 34  1  0  0  0  0
  4 16  1  0  0  0  0
  4 26  1  0  0  0  0
  5  6  1  0  0  0  0
  5 26  1  0  0  0  0
  5 29  2  0  0  0  0
  6  7  1  0  0  0  0
  6 10  1  0  0  0  0
  6 28  1  0  0  0  0
  7  8  1  0  0  0  0
  7 35  1  0  0  0  0
  7 36  1  0  0  0  0
  8 27  1  0  0  0  0
  8 37  1  0  0  0  0
  8 38  1  0  0  0  0
  9 10  1  0  0  0  0
  9 27  1  0  0  0  0
  9 39  1  0  0  0  0
  9 40  1  0  0  0  0
 10 41  1  0  0  0  0
 10 42  1  0  0  0  0
 11 12  2  0  0  0  0
 11 23  1  0  0  0  0
 11 28  1  0  0  0  0
 12 13  1  0  0  0  0
 12 43  1  0  0  0  0
 13 15  2  0  0  0  0
 13 44  1  0  0  0  0
 14 15  1  0  0  0  0
 14 23  2  0  0  0  0
 14 45  1  0  0  0  0
 15 31  1  0  0  0  0
 16 22  2  0  0  0  0
 16 46  1  0  0  0  0
 17 18  1  0  0  0  0
 17 24  2  0  0  0  0
 17 25  1  0  0  0  0
 18 19  2  0  0  0  0
 18 30  1  0  0  0  0
 19 20  1  0  0  0  0
 19 47  1  0  0  0  0
 20 21  2  0  0  0  0
 20 22  1  0  0  0  0
 21 30  1  0  0  0  0
 21 48  1  0  0  0  0
 23 49  1  0  0  0  0
 24 50  1  0  0  0  0
 24 51  1  0  0  0  0
 25 52  1  0  0  0  0
 25 53  1  0  0  0  0
 26 54  1  0  0  0  0
 27 55  1  0  0  0  0
 27 56  1  0  0  0  0
 28 57  1  0  0  0  0
M  CHG  2  24   1  27   1
M  END
>  <COMPND>
    title: molecule 1

$$$$
8BYD_ligand0.pdb
 OpenBabel06042612053D

 53 56  0  0  0  0  0  0  0  0999 V2000
  -18.7910  -21.9360   -4.9610 C   0  0  0  0  0  0  0  0  0  0  0  0
  -16.4970  -19.0020   -1.2610 C   0  0  0  0  0  0  0  0  0  0  0  0
  -15.9680  -17.4480    0.7330 C   0  0  0  0  0  0  0  0  0  0  0  0
  -14.8360  -16.9310    1.2430 C   0  0  0  0  0  0  0  0  0  0  0  0
  -13.6760  -17.3470    0.1580 C   0  0  0  0  0  0  0  0  0  0  0  0
  -14.1620  -18.3000   -0.6720 C   0  0  0  0  0  0  0  0  0  0  0  0
  -16.5060  -20.4920    1.2940 C   0  0  0  0  0  0  0  0  0  0  0  0
  -17.8040  -19.9480    1.3440 C   0  0  0  0  0  0  0  0  0  0  0  0
  -20.5560  -16.1930   -6.7470 C   0  0  0  0  0  0  0  0  0  0  0  0
  -20.3030  -17.6550   -6.6420 C   0  0  0  0  0  0  0  0  0  0  0  0
  -19.5140  -18.1960   -5.6110 C   0  0  0  0  0  0  0  0  0  0  0  0
  -19.4420  -19.6400   -5.7910 C   0  0  0  0  0  0  0  0  0  0  0  0
  -20.1830  -20.0820   -6.9360 C   0  0  0  0  0  0  0  0  0  0  0  0
  -18.6700  -20.5400   -4.8100 C   0  0  0  0  0  0  0  0  0  0  0  0
  -18.1310  -22.7640   -4.0910 C   0  0  0  0  0  0  0  0  0  0  0  0
  -17.3710  -22.2090   -3.0740 C   0  0  0  0  0  0  0  0  0  0  0  0
  -17.2770  -20.8260   -2.9320 C   0  0  0  0  0  0  0  0  0  0  0  0
  -15.5190  -18.7540   -0.0640 C   0  0  0  0  0  0  0  0  0  0  0  0
  -18.8560  -20.6110    2.0230 C   0  0  0  0  0  0  0  0  0  0  0  0
  -18.5680  -21.8250    2.6440 C   0  0  0  0  0  0  0  0  0  0  0  0
  -17.3100  -22.3520    2.6010 C   0  0  0  0  0  0  0  0  0  0  0  0
  -16.2850  -21.6810    1.9410 C   0  0  0  0  0  0  0  0  0  0  0  0
  -17.9440  -19.9660   -3.7990 C   0  0  0  0  0  0  0  0  0  0  0  0
  -21.1880  -15.6800   -7.9490 N   0  3  0  0  0  0  0  0  0  0  0  0
  -20.1500  -15.4810   -5.7770 N   0  0  0  0  0  0  0  0  0  0  0  0
  -16.4430  -20.3570   -1.8210 N   0  0  0  0  0  0  0  0  0  0  0  0
  -17.2230  -18.1570   -1.6510 O   0  0  0  0  0  0  0  0  0  0  0  0
  -15.3590  -19.8920    0.6430 O   0  0  0  0  0  0  0  0  0  0  0  0
  -20.8450  -18.7990   -7.6230 S   0  0  0  0  0  0  0  0  0  0  0  0
  -19.7730  -22.7920    3.5230 Cl  0  0  0  0  0  0  0  0  0  0  0  0
  -19.3860  -22.3690   -5.7500 H   0  0  0  0  0  0  0  0  0  0  0  0
  -16.4030  -16.6960    0.0850 H   0  0  0  0  0  0  0  0  0  0  0  0
  -16.6800  -17.6250    1.5330 H   0  0  0  0  0  0  0  0  0  0  0  0
  -14.6070  -17.3920    2.2040 H   0  0  0  0  0  0  0  0  0  0  0  0
  -14.8850  -15.8540    1.3950 H   0  0  0  0  0  0  0  0  0  0  0  0
  -12.8020  -17.7060    0.7030 H   0  0  0  0  0  0  0  0  0  0  0  0
  -13.3510  -16.4700   -0.4040 H   0  0  0  0  0  0  0  0  0  0  0  0
  -13.4720  -19.1380   -0.7800 H   0  0  0  0  0  0  0  0  0  0  0  0
  -14.2870  -17.8760   -1.6710 H   0  0  0  0  0  0  0  0  0  0  0  0
  -18.0690  -19.0250    0.8570 H   0  0  0  0  0  0  0  0  0  0  0  0
  -19.0470  -17.6420   -4.8140 H   0  0  0  0  0  0  0  0  0  0  0  0
  -20.3370  -21.0750   -7.3300 H   0  0  0  0  0  0  0  0  0  0  0  0
  -18.2040  -23.8360   -4.1950 H   0  0  0  0  0  0  0  0  0  0  0  0
  -16.8720  -22.8740   -2.3900 H   0  0  0  0  0  0  0  0  0  0  0  0
  -19.8510  -20.1910    2.0510 H   0  0  0  0  0  0  0  0  0  0  0  0
  -17.1340  -23.2940    3.0760 H   0  0  0  0  0  0  0  0  0  0  0  0
  -15.3550  -22.1590    1.7970 H   0  0  0  0  0  0  0  0  0  0  0  0
  -17.8610  -18.8990   -3.7250 H   0  0  0  0  0  0  0  0  0  0  0  0
  -21.3640  -14.6770   -8.0330 H   0  0  0  0  0  0  0  0  0  0  0  0
  -21.4960  -16.3060   -8.6870 H   0  0  0  0  0  0  0  0  0  0  0  0
  -20.2870  -14.4730   -5.8080 H   0  0  0  0  0  0  0  0  0  0  0  0
  -19.6360  -15.8850   -5.0040 H   0  0  0  0  0  0  0  0  0  0  0  0
  -15.8260  -21.0340   -1.3890 H   0  0  0  0  0  0  0  0  0  0  0  0
  1 14  2  0  0  0  0
  1 15  1  0  0  0  0
  1 31  1  0  0  0  0
  2 18  1  0  0  0  0
  2 26  1  0  0  0  0
  2 27  2  0  0  0  0
  3  4  1  0  0  0  0
  3 18  1  0  0  0  0
  3 32  1  0  0  0  0
  3 33  1  0  0  0  0
  4  5  1  0  0  0  0
  4 34  1  0  0  0  0
  4 35  1  0  0  0  0
  5  6  1  0  0  0  0
  5 36  1  0  0  0  0
  5 37  1  0  0  0  0
  6 18  1  0  0  0  0
  6 38  1  0  0  0  0
  6 39  1  0  0  0  0
  7  8  2  0  0  0  0
  7 22  1  0  0  0  0
  7 28  1  0  0  0  0
  8 19  1  0  0  0  0
  8 40  1  0  0  0  0
  9 10  1  0  0  0  0
  9 24  2  0  0  0  0
  9 25  1  0  0  0  0
 10 11  2  0  0  0  0
 10 29  1  0  0  0  0
 11 12  1  0  0  0  0
 11 41  1  0  0  0  0
 12 13  2  0  0  0  0
 12 14  1  0  0  0  0
 13 29  1  0  0  0  0
 13 42  1  0  0  0  0
 14 23  1  0  0  0  0
 15 16  2  0  0  0  0
 15 43  1  0  0  0  0
 16 17  1  0  0  0  0
 16 44  1  0  0  0  0
 17 23  2  0  0  0  0
 17 26  1  0  0  0  0
 18 28  1  0  0  0  0
 19 20  2  0  0  0  0
 19 45  1  0  0  0  0
 20 21  1  0  0  0  0
 20 30  1  0  0  0  0
 21 22  2  0  0  0  0
 21 46  1  0  0  0  0
 22 47  1  0  0  0  0
 23 48  1  0  0  0  0
 24 49  1  0  0  0  0
 24 50  1  0  0  0  0
 25 51  1  0  0  0  0
 25 52  1  0  0  0  0
 26 53  1  0  0  0  0
M  CHG  1  24   1
M  END
>  <COMPND>
    title: molecule 1

$$$$
8BYE_ligand0.pdb
 OpenBabel06042612053D

 50 53  0  0  0  0  0  0  0  0999 V2000
  -20.4680  -16.1520   -6.6500 C   0  0  0  0  0  0  0  0  0  0  0  0
  -20.1720  -17.6240   -6.5680 C   0  0  0  0  0  0  0  0  0  0  0  0
  -19.1840  -18.1370   -5.6910 C   0  0  0  0  0  0  0  0  0  0  0  0
  -19.1050  -19.6250   -5.8620 C   0  0  0  0  0  0  0  0  0  0  0  0
  -20.0000  -20.0940   -6.8580 C   0  0  0  0  0  0  0  0  0  0  0  0
  -18.0880  -20.4170   -5.0820 C   0  0  0  0  0  0  0  0  0  0  0  0
  -17.5780  -21.5460   -5.6820 C   0  0  0  0  0  0  0  0  0  0  0  0
  -16.6020  -22.2800   -5.0390 C   0  0  0  0  0  0  0  0  0  0  0  0
  -16.1390  -21.8580   -3.8170 C   0  0  0  0  0  0  0  0  0  0  0  0
  -16.6470  -20.7170   -3.2340 C   0  0  0  0  0  0  0  0  0  0  0  0
  -16.0910  -19.0640   -1.3650 C   0  0  0  0  0  0  0  0  0  0  0  0
  -15.3580  -18.9530   -0.0220 C   0  0  0  0  0  0  0  0  0  0  0  0
  -15.6120  -17.7130    0.8030 C   0  0  0  0  0  0  0  0  0  0  0  0
  -14.1590  -17.3050    0.6590 C   0  0  0  0  0  0  0  0  0  0  0  0
  -13.9330  -18.4910   -0.2360 C   0  0  0  0  0  0  0  0  0  0  0  0
  -16.4120  -20.5920    1.2800 C   0  0  0  0  0  0  0  0  0  0  0  0
  -17.6330  -19.9280    1.3940 C   0  0  0  0  0  0  0  0  0  0  0  0
  -18.6920  -20.5370    2.0670 C   0  0  0  0  0  0  0  0  0  0  0  0
  -18.4690  -21.8020    2.6120 C   0  0  0  0  0  0  0  0  0  0  0  0
  -17.2740  -22.4240    2.4830 C   0  0  0  0  0  0  0  0  0  0  0  0
  -16.2460  -21.8300    1.8260 C   0  0  0  0  0  0  0  0  0  0  0  0
  -17.6160  -19.9580   -3.8740 C   0  0  0  0  0  0  0  0  0  0  0  0
  -21.1030  -15.7040   -7.8680 N   0  3  0  0  0  0  0  0  0  0  0  0
  -20.0930  -15.3350   -5.7500 N   0  0  0  0  0  0  0  0  0  0  0  0
  -16.0710  -20.3730   -1.9640 N   0  0  0  0  0  0  0  0  0  0  0  0
  -16.6040  -18.1370   -1.9040 O   0  0  0  0  0  0  0  0  0  0  0  0
  -15.2690  -20.1110    0.6320 O   0  0  0  0  0  0  0  0  0  0  0  0
  -20.8480  -18.8280   -7.4430 S   0  0  0  0  0  0  0  0  0  0  0  0
  -19.6920  -22.7450    3.4770 Cl  0  0  0  0  0  0  0  0  0  0  0  0
  -18.5680  -17.5650   -5.0150 H   0  0  0  0  0  0  0  0  0  0  0  0
  -20.1650  -21.0970   -7.2240 H   0  0  0  0  0  0  0  0  0  0  0  0
  -17.9250  -21.8670   -6.6530 H   0  0  0  0  0  0  0  0  0  0  0  0
  -16.1820  -23.1590   -5.5050 H   0  0  0  0  0  0  0  0  0  0  0  0
  -15.3150  -22.3760   -3.3850 H   0  0  0  0  0  0  0  0  0  0  0  0
  -15.8720  -17.8980    1.8420 H   0  0  0  0  0  0  0  0  0  0  0  0
  -16.2960  -16.9890    0.3570 H   0  0  0  0  0  0  0  0  0  0  0  0
  -13.6020  -17.3590    1.5950 H   0  0  0  0  0  0  0  0  0  0  0  0
  -14.0220  -16.3450    0.1600 H   0  0  0  0  0  0  0  0  0  0  0  0
  -13.6780  -18.2090   -1.2600 H   0  0  0  0  0  0  0  0  0  0  0  0
  -13.2130  -19.1990    0.1590 H   0  0  0  0  0  0  0  0  0  0  0  0
  -17.8130  -18.9570    0.9600 H   0  0  0  0  0  0  0  0  0  0  0  0
  -19.6500  -20.0470    2.1610 H   0  0  0  0  0  0  0  0  0  0  0  0
  -17.1760  -23.4100    2.8840 H   0  0  0  0  0  0  0  0  0  0  0  0
  -15.3360  -22.3740    1.6870 H   0  0  0  0  0  0  0  0  0  0  0  0
  -18.0640  -19.0850   -3.4310 H   0  0  0  0  0  0  0  0  0  0  0  0
  -21.3080  -14.7100   -7.9880 H   0  0  0  0  0  0  0  0  0  0  0  0
  -21.3780  -16.3590   -8.5940 H   0  0  0  0  0  0  0  0  0  0  0  0
  -20.2900  -14.3390   -5.8560 H   0  0  0  0  0  0  0  0  0  0  0  0
  -19.5550  -15.6490   -4.9520 H   0  0  0  0  0  0  0  0  0  0  0  0
  -15.5350  -21.0970   -1.5000 H   0  0  0  0  0  0  0  0  0  0  0  0
  1  2  1  0  0  0  0
  1 23  2  0  0  0  0
  1 24  1  0  0  0  0
  2  3  2  0  0  0  0
  2 28  1  0  0  0  0
  3  4  1  0  0  0  0
  3 30  1  0  0  0  0
  4  5  2  0  0  0  0
  4  6  1  0  0  0  0
  5 28  1  0  0  0  0
  5 31  1  0  0  0  0
  6  7  2  0  0  0  0
  6 22  1  0  0  0  0
  7  8  1  0  0  0  0
  7 32  1  0  0  0  0
  8  9  2  0  0  0  0
  8 33  1  0  0  0  0
  9 10  1  0  0  0  0
  9 34  1  0  0  0  0
 10 22  2  0  0  0  0
 10 25  1  0  0  0  0
 11 12  1  0  0  0  0
 11 25  1  0  0  0  0
 11 26  2  0  0  0  0
 12 13  1  0  0  0  0
 12 15  1  0  0  0  0
 12 27  1  0  0  0  0
 13 14  1  0  0  0  0
 13 35  1  0  0  0  0
 13 36  1  0  0  0  0
 14 15  1  0  0  0  0
 14 37  1  0  0  0  0
 14 38  1  0  0  0  0
 15 39  1  0  0  0  0
 15 40  1  0  0  0  0
 16 17  2  0  0  0  0
 16 21  1  0  0  0  0
 16 27  1  0  0  0  0
 17 18  1  0  0  0  0
 17 41  1  0  0  0  0
 18 19  2  0  0  0  0
 18 42  1  0  0  0  0
 19 20  1  0  0  0  0
 19 29  1  0  0  0  0
 20 21  2  0  0  0  0
 20 43  1  0  0  0  0
 21 44  1  0  0  0  0
 22 45  1  0  0  0  0
 23 46  1  0  0  0  0
 23 47  1  0  0  0  0
 24 48  1  0  0  0  0
 24 49  1  0  0  0  0
 25 50  1  0  0  0  0
M  CHG  1  23   1
M  END
>  <COMPND>
    title: molecule 1

$$$$
8BYF_ligand0.pdb
 OpenBabel06042612053D

 49 51  0  0  0  0  0  0  0  0999 V2000
   19.4360   18.0860   -5.6260 C   0  0  0  0  0  0  0  0  0  0  0  0
   19.3400   19.5100   -5.7370 C   0  0  0  0  0  0  0  0  0  0  0  0
   18.5650   21.7800   -5.0790 C   0  0  0  0  0  0  0  0  0  0  0  0
   17.1140   22.0970   -3.1930 C   0  0  0  0  0  0  0  0  0  0  0  0
   17.1670   20.7350   -2.9240 C   0  0  0  0  0  0  0  0  0  0  0  0
   16.3860   19.0040   -1.3040 C   0  0  0  0  0  0  0  0  0  0  0  0
   15.4100   18.8380   -0.1370 C   0  0  0  0  0  0  0  0  0  0  0  0
   15.8230   17.6710    0.7460 C   0  0  0  0  0  0  0  0  0  0  0  0
   16.5200   20.5700    1.2820 C   0  0  0  0  0  0  0  0  0  0  0  0
   18.8040   20.6420    1.9970 C   0  0  0  0  0  0  0  0  0  0  0  0
   18.5340   21.8170    2.6680 C   0  0  0  0  0  0  0  0  0  0  0  0
   17.9010   19.8960   -3.7520 C   0  0  0  0  0  0  0  0  0  0  0  0
   19.8180   22.6410    3.5000 Cl  0  0  0  0  0  0  0  0  0  0  0  0
   20.1120   15.3180   -5.8030 N   0  3  0  0  0  0  0  0  0  0  0  0
   20.5420   16.1430   -6.7630 C   0  0  0  0  0  0  0  0  0  0  0  0
   15.4030   20.1040    0.5530 O   0  0  0  0  0  0  0  0  0  0  0  0
   20.2640   17.5470   -6.5620 C   0  0  0  0  0  0  0  0  0  0  0  0
   14.0120   18.6400   -0.6980 C   0  0  0  0  0  0  0  0  0  0  0  0
   17.7900   20.0110    1.3040 C   0  0  0  0  0  0  0  0  0  0  0  0
   17.2760   22.3570    2.6750 C   0  0  0  0  0  0  0  0  0  0  0  0
   16.2620   21.7350    1.9790 C   0  0  0  0  0  0  0  0  0  0  0  0
   20.0870   19.9980   -6.7460 C   0  0  0  0  0  0  0  0  0  0  0  0
   18.5940   20.4120   -4.8420 C   0  0  0  0  0  0  0  0  0  0  0  0
   17.8250   22.6160   -4.2610 C   0  0  0  0  0  0  0  0  0  0  0  0
   16.4390   20.2550   -1.8120 N   0  0  0  0  0  0  0  0  0  0  0  0
   21.1200   15.7200   -7.8060 N   0  0  0  0  0  0  0  0  0  0  0  0
   17.0930   18.0770   -1.6770 O   0  0  0  0  0  0  0  0  0  0  0  0
   20.9360   18.7610   -7.5740 S   0  0  0  0  0  0  0  0  0  0  0  0
   18.9060   17.5150   -4.8820 H   0  0  0  0  0  0  0  0  0  0  0  0
   19.0880   22.2410   -5.8990 H   0  0  0  0  0  0  0  0  0  0  0  0
   16.6460   22.8260   -2.5810 H   0  0  0  0  0  0  0  0  0  0  0  0
   15.3910   17.7730    1.7420 H   0  0  0  0  0  0  0  0  0  0  0  0
   15.4410   16.7340    0.3380 H   0  0  0  0  0  0  0  0  0  0  0  0
   16.8900   17.5120    0.8700 H   0  0  0  0  0  0  0  0  0  0  0  0
   19.8020   20.2270    1.9950 H   0  0  0  0  0  0  0  0  0  0  0  0
   17.9420   18.8370   -3.6070 H   0  0  0  0  0  0  0  0  0  0  0  0
   20.2830   14.3170   -5.8830 H   0  0  0  0  0  0  0  0  0  0  0  0
   19.5710   15.6590   -5.0160 H   0  0  0  0  0  0  0  0  0  0  0  0
   13.2990   18.5270    0.1170 H   0  0  0  0  0  0  0  0  0  0  0  0
   13.6900   19.4860   -1.3060 H   0  0  0  0  0  0  0  0  0  0  0  0
   13.9460   17.7430   -1.3160 H   0  0  0  0  0  0  0  0  0  0  0  0
   18.0670   19.1370    0.7460 H   0  0  0  0  0  0  0  0  0  0  0  0
   17.1080   23.2540    3.2340 H   0  0  0  0  0  0  0  0  0  0  0  0
   15.2730   22.1700    1.9700 H   0  0  0  0  0  0  0  0  0  0  0  0
   20.2400   21.0130   -7.0740 H   0  0  0  0  0  0  0  0  0  0  0  0
   17.8060   23.6790   -4.4520 H   0  0  0  0  0  0  0  0  0  0  0  0
   15.8460   20.9410   -1.3600 H   0  0  0  0  0  0  0  0  0  0  0  0
   21.4430   16.3670   -8.5170 H   0  0  0  0  0  0  0  0  0  0  0  0
   21.2970   14.7240   -7.9220 H   0  0  0  0  0  0  0  0  0  0  0  0
  1  2  1  0  0  0  0
  1 17  2  0  0  0  0
  1 29  1  0  0  0  0
  2 22  2  0  0  0  0
  2 23  1  0  0  0  0
  3 23  2  0  0  0  0
  3 24  1  0  0  0  0
  3 30  1  0  0  0  0
  4  5  1  0  0  0  0
  4 24  2  0  0  0  0
  4 31  1  0  0  0  0
  5 12  2  0  0  0  0
  5 25  1  0  0  0  0
  6  7  1  0  0  0  0
  6 25  1  0  0  0  0
  6 27  2  0  0  0  0
  7  8  1  0  0  0  0
  7 16  1  0  0  0  0
  7 18  1  0  0  0  0
  8 32  1  0  0  0  0
  8 33  1  0  0  0  0
  8 34  1  0  0  0  0
  9 16  1  0  0  0  0
  9 19  2  0  0  0  0
  9 21  1  0  0  0  0
 10 11  2  0  0  0  0
 10 19  1  0  0  0  0
 10 35  1  0  0  0  0
 11 13  1  0  0  0  0
 11 20  1  0  0  0  0
 12 23  1  0  0  0  0
 12 36  1  0  0  0  0
 14 15  2  0  0  0  0
 14 37  1  0  0  0  0
 14 38  1  0  0  0  0
 15 17  1  0  0  0  0
 15 26  1  0  0  0  0
 17 28  1  0  0  0  0
 18 39  1  0  0  0  0
 18 40  1  0  0  0  0
 18 41  1  0  0  0  0
 19 42  1  0  0  0  0
 20 21  2  0  0  0  0
 20 43  1  0  0  0  0
 21 44  1  0  0  0  0
 22 28  1  0  0  0  0
 22 45  1  0  0  0  0
 24 46  1  0  0  0  0
 25 47  1  0  0  0  0
 26 48  1  0  0  0  0
 26 49  1  0  0  0  0
M  CHG  1  14   1
M  END
>  <COMPND>
    title: molecule 1

$$$$
8BYG_ligand0.pdb
 OpenBabel06042612053D

 59 61  0  0  0  0  0  0  0  0999 V2000
   19.2950   17.9560   -5.7000 C   0  0  0  0  0  0  0  0  0  0  0  0
   14.7800   19.7630   -0.9800 C   0  0  0  0  0  0  0  0  0  0  0  0
   15.6920   21.0620   -2.8890 C   0  0  0  0  0  0  0  0  0  0  0  0
   18.2990   20.2860   -5.0120 C   0  0  0  0  0  0  0  0  0  0  0  0
   12.8140   21.1630   -0.3250 C   0  0  0  0  0  0  0  0  0  0  0  0
   13.8340   19.5330    1.2890 C   0  0  0  0  0  0  0  0  0  0  0  0
   18.2100   20.0320    1.6560 C   0  0  0  0  0  0  0  0  0  0  0  0
   17.8830   22.1190    2.8050 C   0  0  0  0  0  0  0  0  0  0  0  0
   14.9790   21.5670    0.6580 O   0  0  0  0  0  0  0  0  0  0  0  0
   20.5130   16.0960   -6.8360 C   0  0  0  0  0  0  0  0  0  0  0  0
   20.0020   15.2340   -5.9500 N   0  3  0  0  0  0  0  0  0  0  0  0
   19.1420   19.3840   -5.7170 C   0  0  0  0  0  0  0  0  0  0  0  0
   20.2470   17.4950   -6.5270 C   0  0  0  0  0  0  0  0  0  0  0  0
   17.0780   20.4470   -2.8150 C   0  0  0  0  0  0  0  0  0  0  0  0
   16.1900   21.2740    1.3460 C   0  0  0  0  0  0  0  0  0  0  0  0
   14.1040   20.5190    0.1660 C   0  0  0  0  0  0  0  0  0  0  0  0
   16.6350   22.2410    2.2330 C   0  0  0  0  0  0  0  0  0  0  0  0
   18.6720   21.0270    2.4890 C   0  0  0  0  0  0  0  0  0  0  0  0
   21.0720   18.7920   -7.3740 S   0  0  0  0  0  0  0  0  0  0  0  0
   16.9640   20.1570    1.0820 C   0  0  0  0  0  0  0  0  0  0  0  0
   13.5490   19.8440   -3.0850 C   0  0  0  0  0  0  0  0  0  0  0  0
   16.5630   18.6800   -4.4950 C   0  0  0  0  0  0  0  0  0  0  0  0
   18.3400   21.6590   -5.2120 C   0  0  0  0  0  0  0  0  0  0  0  0
   19.2390   22.1840   -6.1200 C   0  0  0  0  0  0  0  0  0  0  0  0
   20.0930   21.3560   -6.8290 C   0  0  0  0  0  0  0  0  0  0  0  0
   20.0460   19.9870   -6.6140 C   0  0  0  0  0  0  0  0  0  0  0  0
   21.1380   15.6400   -7.8510 N   0  0  0  0  0  0  0  0  0  0  0  0
   17.4470   19.7140   -4.0370 N   0  0  0  0  0  0  0  0  0  0  0  0
   14.6830   20.2140   -2.2520 N   0  0  0  0  0  0  0  0  0  0  0  0
   15.3940   18.7350   -0.7490 O   0  0  0  0  0  0  0  0  0  0  0  0
   20.3050   20.9470    3.0790 Cl  0  0  0  0  0  0  0  0  0  0  0  0
   18.7040   17.2960   -5.0950 H   0  0  0  0  0  0  0  0  0  0  0  0
   15.4220   21.3360   -3.9100 H   0  0  0  0  0  0  0  0  0  0  0  0
   15.7010   22.0000   -2.3320 H   0  0  0  0  0  0  0  0  0  0  0  0
   12.2340   21.5700    0.4990 H   0  0  0  0  0  0  0  0  0  0  0  0
   13.0180   22.0000   -0.9940 H   0  0  0  0  0  0  0  0  0  0  0  0
   12.1720   20.4690   -0.8580 H   0  0  0  0  0  0  0  0  0  0  0  0
   13.1620   19.9520    2.0240 H   0  0  0  0  0  0  0  0  0  0  0  0
   13.3350   18.6370    0.9180 H   0  0  0  0  0  0  0  0  0  0  0  0
   14.7110   19.1760    1.8240 H   0  0  0  0  0  0  0  0  0  0  0  0
   18.8360   19.1810    1.4270 H   0  0  0  0  0  0  0  0  0  0  0  0
   18.2570   22.8930    3.4580 H   0  0  0  0  0  0  0  0  0  0  0  0
   20.2070   14.2380   -6.0410 H   0  0  0  0  0  0  0  0  0  0  0  0
   19.4130   15.5400   -5.1860 H   0  0  0  0  0  0  0  0  0  0  0  0
   17.2290   19.7980   -1.9560 H   0  0  0  0  0  0  0  0  0  0  0  0
   17.8040   21.2470   -2.6640 H   0  0  0  0  0  0  0  0  0  0  0  0
   16.0230   23.1050    2.4110 H   0  0  0  0  0  0  0  0  0  0  0  0
   16.8990   19.3050    0.4870 H   0  0  0  0  0  0  0  0  0  0  0  0
   13.8200   19.6350   -4.1150 H   0  0  0  0  0  0  0  0  0  0  0  0
   13.0340   18.9610   -2.7020 H   0  0  0  0  0  0  0  0  0  0  0  0
   12.8290   20.6630   -3.1180 H   0  0  0  0  0  0  0  0  0  0  0  0
   16.2880   18.0000   -3.6880 H   0  0  0  0  0  0  0  0  0  0  0  0
   15.6560   19.1510   -4.8560 H   0  0  0  0  0  0  0  0  0  0  0  0
   16.8820   18.0980   -5.3520 H   0  0  0  0  0  0  0  0  0  0  0  0
   17.6870   22.3260   -4.6700 H   0  0  0  0  0  0  0  0  0  0  0  0
   19.2760   23.2520   -6.2790 H   0  0  0  0  0  0  0  0  0  0  0  0
   20.7760   21.7750   -7.5500 H   0  0  0  0  0  0  0  0  0  0  0  0
   21.5290   16.2760   -8.5360 H   0  0  0  0  0  0  0  0  0  0  0  0
   21.3170   14.6390   -7.9430 H   0  0  0  0  0  0  0  0  0  0  0  0
  1 12  1  0  0  0  0
  1 13  2  0  0  0  0
  1 32  1  0  0  0  0
  2 16  1  0  0  0  0
  2 29  1  0  0  0  0
  2 30  2  0  0  0  0
  3 14  1  0  0  0  0
  3 29  1  0  0  0  0
  3 33  1  0  0  0  0
  3 34  1  0  0  0  0
  4 12  2  0  0  0  0
  4 23  1  0  0  0  0
  4 28  1  0  0  0  0
  5 16  1  0  0  0  0
  5 35  1  0  0  0  0
  5 36  1  0  0  0  0
  5 37  1  0  0  0  0
  6 16  1  0  0  0  0
  6 38  1  0  0  0  0
  6 39  1  0  0  0  0
  6 40  1  0  0  0  0
  7 18  2  0  0  0  0
  7 20  1  0  0  0  0
  7 41  1  0  0  0  0
  8 17  2  0  0  0  0
  8 18  1  0  0  0  0
  8 42  1  0  0  0  0
  9 15  1  0  0  0  0
  9 16  1  0  0  0  0
 10 11  2  0  0  0  0
 10 13  1  0  0  0  0
 10 27  1  0  0  0  0
 11 43  1  0  0  0  0
 11 44  1  0  0  0  0
 12 26  1  0  0  0  0
 13 19  1  0  0  0  0
 14 28  1  0  0  0  0
 14 45  1  0  0  0  0
 14 46  1  0  0  0  0
 15 17  1  0  0  0  0
 15 20  2  0  0  0  0
 17 47  1  0  0  0  0
 18 31  1  0  0  0  0
 19 26  1  0  0  0  0
 20 48  1  0  0  0  0
 21 29  1  0  0  0  0
 21 49  1  0  0  0  0
 21 50  1  0  0  0  0
 21 51  1  0  0  0  0
 22 28  1  0  0  0  0
 22 52  1  0  0  0  0
 22 53  1  0  0  0  0
 22 54  1  0  0  0  0
 23 24  2  0  0  0  0
 23 55  1  0  0  0  0
 24 25  1  0  0  0  0
 24 56  1  0  0  0  0
 25 26  2  0  0  0  0
 25 57  1  0  0  0  0
 27 58  1  0  0  0  0
 27 59  1  0  0  0  0
M  CHG  1  11   1
M  END
>  <COMPND>
    title: molecule 1

$$$$
8BYO_ligand0.pdb
 OpenBabel06042612053D

 49 51  0  0  0  0  0  0  0  0999 V2000
   20.2310   17.6320   -6.6400 C   0  0  0  0  0  0  0  0  0  0  0  0
   20.4450   16.0810   -6.7660 C   0  0  0  0  0  0  0  0  0  0  0  0
   19.4290   18.1890   -5.6000 C   0  0  0  0  0  0  0  0  0  0  0  0
   18.2950   22.7900   -4.0040 C   0  0  0  0  0  0  0  0  0  0  0  0
   17.4680   22.2600   -3.0370 C   0  0  0  0  0  0  0  0  0  0  0  0
   17.2250   22.3400    2.7980 C   0  0  0  0  0  0  0  0  0  0  0  0
   18.5070   21.8610    2.7060 C   0  0  0  0  0  0  0  0  0  0  0  0
   18.7780   20.7350    1.9630 C   0  0  0  0  0  0  0  0  0  0  0  0
   14.0400   18.5880   -0.7270 C   0  0  0  0  0  0  0  0  0  0  0  0
   15.4350   18.8120   -0.1150 C   0  0  0  0  0  0  0  0  0  0  0  0
   15.8540   17.5550    0.7460 C   0  0  0  0  0  0  0  0  0  0  0  0
   16.4680   19.1020   -1.2740 C   0  0  0  0  0  0  0  0  0  0  0  0
   17.2620   20.9000   -2.9680 C   0  0  0  0  0  0  0  0  0  0  0  0
   17.8970   20.0480   -3.8520 C   0  0  0  0  0  0  0  0  0  0  0  0
   18.6940   20.5860   -4.8060 C   0  0  0  0  0  0  0  0  0  0  0  0
   19.4200   19.6790   -5.7650 C   0  0  0  0  0  0  0  0  0  0  0  0
   20.2290   20.0970   -6.8890 C   0  0  0  0  0  0  0  0  0  0  0  0
   18.9200   21.9590   -4.8810 C   0  0  0  0  0  0  0  0  0  0  0  0
   16.4650   20.5810    1.3880 C   0  0  0  0  0  0  0  0  0  0  0  0
   16.2220   21.7050    2.1310 C   0  0  0  0  0  0  0  0  0  0  0  0
   17.7690   20.0880    1.3030 C   0  0  0  0  0  0  0  0  0  0  0  0
   20.0550   20.2730    1.8910 F   0  0  0  0  0  0  0  0  0  0  0  0
   16.3620   20.4200   -1.8930 N   0  0  0  0  0  0  0  0  0  0  0  0
   21.1240   15.5780   -7.9170 N   0  3  0  0  0  0  0  0  0  0  0  0
   19.9800   15.3360   -5.8400 N   0  0  0  0  0  0  0  0  0  0  0  0
   17.2610   18.3190   -1.6010 O   0  0  0  0  0  0  0  0  0  0  0  0
   15.3330   19.9870    0.7300 O   0  0  0  0  0  0  0  0  0  0  0  0
   20.8720   18.7880   -7.5790 S   0  0  0  0  0  0  0  0  0  0  0  0
   19.7820   22.7170    3.5630 Cl  0  0  0  0  0  0  0  0  0  0  0  0
   18.9250   17.6370   -4.8240 H   0  0  0  0  0  0  0  0  0  0  0  0
   18.4600   23.8550   -4.0500 H   0  0  0  0  0  0  0  0  0  0  0  0
   17.0050   22.9400   -2.3490 H   0  0  0  0  0  0  0  0  0  0  0  0
   17.0380   23.1910    3.4190 H   0  0  0  0  0  0  0  0  0  0  0  0
   13.7050   19.4530   -1.3010 H   0  0  0  0  0  0  0  0  0  0  0  0
   14.0300   17.7240   -1.3920 H   0  0  0  0  0  0  0  0  0  0  0  0
   13.3050   18.4060    0.0560 H   0  0  0  0  0  0  0  0  0  0  0  0
   16.8860   17.5530    1.0860 H   0  0  0  0  0  0  0  0  0  0  0  0
   15.2230   17.4750    1.6320 H   0  0  0  0  0  0  0  0  0  0  0  0
   15.7160   16.6370    0.1740 H   0  0  0  0  0  0  0  0  0  0  0  0
   17.7080   18.9900   -3.8120 H   0  0  0  0  0  0  0  0  0  0  0  0
   20.4430   21.0860   -7.2660 H   0  0  0  0  0  0  0  0  0  0  0  0
   19.5790   22.3830   -5.6230 H   0  0  0  0  0  0  0  0  0  0  0  0
   15.2150   22.0870    2.2070 H   0  0  0  0  0  0  0  0  0  0  0  0
   18.0560   19.2220    0.7360 H   0  0  0  0  0  0  0  0  0  0  0  0
   15.7100   21.0930   -1.5040 H   0  0  0  0  0  0  0  0  0  0  0  0
   21.3110   14.5750   -7.9970 H   0  0  0  0  0  0  0  0  0  0  0  0
   21.4810   16.2100   -8.6250 H   0  0  0  0  0  0  0  0  0  0  0  0
   20.1420   14.3310   -5.8800 H   0  0  0  0  0  0  0  0  0  0  0  0
   19.4460   15.7230   -5.0710 H   0  0  0  0  0  0  0  0  0  0  0  0
  1  2  1  0  0  0  0
  1  3  2  0  0  0  0
  1 28  1  0  0  0  0
  2 24  2  0  0  0  0
  2 25  1  0  0  0  0
  3 16  1  0  0  0  0
  3 30  1  0  0  0  0
  4  5  2  0  0  0  0
  4 18  1  0  0  0  0
  4 31  1  0  0  0  0
  5 13  1  0  0  0  0
  5 32  1  0  0  0  0
  6  7  2  0  0  0  0
  6 20  1  0  0  0  0
  6 33  1  0  0  0  0
  7  8  1  0  0  0  0
  7 29  1  0  0  0  0
  8 21  2  0  0  0  0
  8 22  1  0  0  0  0
  9 10  1  0  0  0  0
  9 34  1  0  0  0  0
  9 35  1  0  0  0  0
  9 36  1  0  0  0  0
 10 11  1  0  0  0  0
 10 12  1  0  0  0  0
 10 27  1  0  0  0  0
 11 37  1  0  0  0  0
 11 38  1  0  0  0  0
 11 39  1  0  0  0  0
 12 23  1  0  0  0  0
 12 26  2  0  0  0  0
 13 14  2  0  0  0  0
 13 23  1  0  0  0  0
 14 15  1  0  0  0  0
 14 40  1  0  0  0  0
 15 16  1  0  0  0  0
 15 18  2  0  0  0  0
 16 17  2  0  0  0  0
 17 28  1  0  0  0  0
 17 41  1  0  0  0  0
 18 42  1  0  0  0  0
 19 20  2  0  0  0  0
 19 21  1  0  0  0  0
 19 27  1  0  0  0  0
 20 43  1  0  0  0  0
 21 44  1  0  0  0  0
 23 45  1  0  0  0  0
 24 46  1  0  0  0  0
 24 47  1  0  0  0  0
 25 48  1  0  0  0  0
 25 49  1  0  0  0  0
M  CHG  1  24   1
M  END
>  <COMPND>
    title: molecule 1

$$$$
8BYY_ligand0.pdb
 OpenBabel06042612053D

 50 52  0  0  0  0  0  0  0  0999 V2000
  -17.1310  -22.1720    2.7210 C   0  0  0  0  0  0  0  0  0  0  0  0
  -16.0860  -21.5290    1.9970 C   0  0  0  0  0  0  0  0  0  0  0  0
  -16.4580  -18.8940   -1.4190 C   0  0  0  0  0  0  0  0  0  0  0  0
  -17.3000  -20.7850   -3.0040 C   0  0  0  0  0  0  0  0  0  0  0  0
  -17.9500  -19.9250   -3.9200 C   0  0  0  0  0  0  0  0  0  0  0  0
  -18.8050  -20.5040   -4.8900 C   0  0  0  0  0  0  0  0  0  0  0  0
  -19.0100  -21.8850   -4.9580 C   0  0  0  0  0  0  0  0  0  0  0  0
  -18.3410  -22.7510   -4.0310 C   0  0  0  0  0  0  0  0  0  0  0  0
  -17.4990  -22.1950   -3.0670 C   0  0  0  0  0  0  0  0  0  0  0  0
  -19.5290  -19.5970   -5.8910 C   0  0  0  0  0  0  0  0  0  0  0  0
  -20.2350  -20.0470   -7.0720 C   0  0  0  0  0  0  0  0  0  0  0  0
  -14.4620  -17.6140   -1.1610 C   0  0  0  0  0  0  0  0  0  0  0  0
  -15.4500  -18.4790   -0.3560 C   0  0  0  0  0  0  0  0  0  0  0  0
  -15.9900  -17.4220    0.6770 C   0  0  0  0  0  0  0  0  0  0  0  0
  -16.3100  -20.4180    1.2400 C   0  0  0  0  0  0  0  0  0  0  0  0
  -17.6570  -19.9290    1.1730 C   0  0  0  0  0  0  0  0  0  0  0  0
  -18.6940  -20.5370    1.8660 C   0  0  0  0  0  0  0  0  0  0  0  0
  -18.4190  -21.6620    2.6210 C   0  0  0  0  0  0  0  0  0  0  0  0
  -20.3430  -17.5940   -6.8420 C   0  0  0  0  0  0  0  0  0  0  0  0
  -19.5820  -18.1440   -5.7400 C   0  0  0  0  0  0  0  0  0  0  0  0
  -20.5850  -16.1440   -7.0280 C   0  0  0  0  0  0  0  0  0  0  0  0
  -15.1750  -19.7250    0.4660 N   0  0  0  0  0  0  0  0  0  0  0  0
  -16.3610  -20.2430   -1.9410 N   0  0  0  0  0  0  0  0  0  0  0  0
  -20.2110  -15.2340   -5.9990 N   0  3  0  0  0  0  0  0  0  0  0  0
  -21.0880  -15.8030   -8.1620 N   0  0  0  0  0  0  0  0  0  0  0  0
  -17.3030  -18.0960   -1.7910 O   0  0  0  0  0  0  0  0  0  0  0  0
  -20.8520  -18.7490   -7.8100 S   0  0  0  0  0  0  0  0  0  0  0  0
  -19.7790  -22.5130    3.5020 Cl  0  0  0  0  0  0  0  0  0  0  0  0
  -16.9590  -23.0220    3.3470 H   0  0  0  0  0  0  0  0  0  0  0  0
  -15.1100  -21.9250    2.0030 H   0  0  0  0  0  0  0  0  0  0  0  0
  -17.7620  -18.8660   -3.9380 H   0  0  0  0  0  0  0  0  0  0  0  0
  -19.6700  -22.3180   -5.6940 H   0  0  0  0  0  0  0  0  0  0  0  0
  -18.4860  -23.8200   -4.0770 H   0  0  0  0  0  0  0  0  0  0  0  0
  -16.9650  -22.8540   -2.4200 H   0  0  0  0  0  0  0  0  0  0  0  0
  -20.3800  -21.0410   -7.4690 H   0  0  0  0  0  0  0  0  0  0  0  0
  -13.6400  -17.2680   -0.5320 H   0  0  0  0  0  0  0  0  0  0  0  0
  -13.9990  -18.1860   -1.9680 H   0  0  0  0  0  0  0  0  0  0  0  0
  -14.9280  -16.7330   -1.6090 H   0  0  0  0  0  0  0  0  0  0  0  0
  -16.0150  -17.7910    1.7020 H   0  0  0  0  0  0  0  0  0  0  0  0
  -15.3770  -16.5210    0.7390 H   0  0  0  0  0  0  0  0  0  0  0  0
  -16.9970  -17.0700    0.4570 H   0  0  0  0  0  0  0  0  0  0  0  0
  -17.9500  -19.0580    0.6180 H   0  0  0  0  0  0  0  0  0  0  0  0
  -19.6980  -20.1430    1.7970 H   0  0  0  0  0  0  0  0  0  0  0  0
  -19.1330  -17.5840   -4.9340 H   0  0  0  0  0  0  0  0  0  0  0  0
  -14.2420  -20.1140    0.4670 H   0  0  0  0  0  0  0  0  0  0  0  0
  -15.6910  -20.8800   -1.5300 H   0  0  0  0  0  0  0  0  0  0  0  0
  -20.3710  -14.2300   -6.1140 H   0  0  0  0  0  0  0  0  0  0  0  0
  -19.7260  -15.5590   -5.1720 H   0  0  0  0  0  0  0  0  0  0  0  0
  -21.2820  -14.8200   -8.3320 H   0  0  0  0  0  0  0  0  0  0  0  0
  -21.3790  -16.4960   -8.8480 H   0  0  0  0  0  0  0  0  0  0  0  0
  1  2  2  0  0  0  0
  1 18  1  0  0  0  0
  1 29  1  0  0  0  0
  2 15  1  0  0  0  0
  2 30  1  0  0  0  0
  3 13  1  0  0  0  0
  3 23  1  0  0  0  0
  3 26  2  0  0  0  0
  4  5  2  0  0  0  0
  4  9  1  0  0  0  0
  4 23  1  0  0  0  0
  5  6  1  0  0  0  0
  5 31  1  0  0  0  0
  6  7  2  0  0  0  0
  6 10  1  0  0  0  0
  7  8  1  0  0  0  0
  7 32  1  0  0  0  0
  8  9  2  0  0  0  0
  8 33  1  0  0  0  0
  9 34  1  0  0  0  0
 10 11  2  0  0  0  0
 10 20  1  0  0  0  0
 11 27  1  0  0  0  0
 11 35  1  0  0  0  0
 12 13  1  0  0  0  0
 12 36  1  0  0  0  0
 12 37  1  0  0  0  0
 12 38  1  0  0  0  0
 13 14  1  0  0  0  0
 13 22  1  0  0  0  0
 14 39  1  0  0  0  0
 14 40  1  0  0  0  0
 14 41  1  0  0  0  0
 15 16  2  0  0  0  0
 15 22  1  0  0  0  0
 16 17  1  0  0  0  0
 16 42  1  0  0  0  0
 17 18  2  0  0  0  0
 17 43  1  0  0  0  0
 18 28  1  0  0  0  0
 19 20  2  0  0  0  0
 19 21  1  0  0  0  0
 19 27  1  0  0  0  0
 20 44  1  0  0  0  0
 21 24  2  0  0  0  0
 21 25  1  0  0  0  0
 22 45  1  0  0  0  0
 23 46  1  0  0  0  0
 24 47  1  0  0  0  0
 24 48  1  0  0  0  0
 25 49  1  0  0  0  0
 25 50  1  0  0  0  0
M  CHG  1  24   1
M  END
>  <COMPND>
    title: molecule 1

$$$$
8C0K_ligand0.pdb
 OpenBabel06042612053D

 56 59  0  0  0  0  0  0  0  0999 V2000
   18.1790   21.6440    2.6150 C   0  0  0  0  0  0  0  0  0  0  0  0
   16.8780   22.0970    2.6130 C   0  0  0  0  0  0  0  0  0  0  0  0
   18.5450   20.5490    1.8640 C   0  0  0  0  0  0  0  0  0  0  0  0
   17.6000   19.8960    1.0960 C   0  0  0  0  0  0  0  0  0  0  0  0
   16.2740   20.3350    1.0850 C   0  0  0  0  0  0  0  0  0  0  0  0
   17.3580   18.1190   -1.8030 O   0  0  0  0  0  0  0  0  0  0  0  0
   17.3450   20.7270   -3.1320 C   0  0  0  0  0  0  0  0  0  0  0  0
   17.5780   22.0950   -3.1480 C   0  0  0  0  0  0  0  0  0  0  0  0
   20.4700   16.0930   -7.0050 C   0  0  0  0  0  0  0  0  0  0  0  0
   20.2580   17.5760   -6.9210 C   0  0  0  0  0  0  0  0  0  0  0  0
   19.5490   18.1310   -5.8260 C   0  0  0  0  0  0  0  0  0  0  0  0
   19.4900   19.6180   -6.0000 C   0  0  0  0  0  0  0  0  0  0  0  0
   20.1070   20.0240   -7.2230 C   0  0  0  0  0  0  0  0  0  0  0  0
   18.7980   20.4920   -4.9850 C   0  0  0  0  0  0  0  0  0  0  0  0
   19.0510   21.8500   -4.9860 C   0  0  0  0  0  0  0  0  0  0  0  0
   18.4260   22.6640   -4.0750 C   0  0  0  0  0  0  0  0  0  0  0  0
   16.5060   18.9090   -1.5430 C   0  0  0  0  0  0  0  0  0  0  0  0
   15.4350   18.5990   -0.5230 C   0  0  0  0  0  0  0  0  0  0  0  0
   15.7630   17.3960    0.2710 C   0  0  0  0  0  0  0  0  0  0  0  0
   14.6190   17.0130    1.2140 C   0  0  0  0  0  0  0  0  0  0  0  0
   12.9950   18.0610   -0.3800 C   0  0  0  0  0  0  0  0  0  0  0  0
   14.1700   18.4080   -1.2930 C   0  0  0  0  0  0  0  0  0  0  0  0
   15.9220   21.4440    1.8460 C   0  0  0  0  0  0  0  0  0  0  0  0
   17.9600   19.9100   -4.0550 C   0  0  0  0  0  0  0  0  0  0  0  0
   21.1100   15.5230   -8.1670 N   0  3  0  0  0  0  0  0  0  0  0  0
   20.0220   15.4240   -6.0460 N   0  0  0  0  0  0  0  0  0  0  0  0
   16.4230   20.2170   -2.1480 N   0  0  0  0  0  0  0  0  0  0  0  0
   13.3000   16.9170    0.5190 N   0  3  0  0  0  0  0  0  0  0  0  0
   15.2240   19.7570    0.3480 O   0  0  0  0  0  0  0  0  0  0  0  0
   20.7230   18.7170   -7.9780 S   0  0  0  0  0  0  0  0  0  0  0  0
   19.3890   22.5100    3.5920 Cl  0  0  0  0  0  0  0  0  0  0  0  0
   16.6160   22.9350    3.2230 H   0  0  0  0  0  0  0  0  0  0  0  0
   19.5690   20.2030    1.8690 H   0  0  0  0  0  0  0  0  0  0  0  0
   17.9680   19.0570    0.5350 H   0  0  0  0  0  0  0  0  0  0  0  0
   17.0680   22.7360   -2.4510 H   0  0  0  0  0  0  0  0  0  0  0  0
   19.1460   17.5990   -4.9810 H   0  0  0  0  0  0  0  0  0  0  0  0
   20.2120   21.0110   -7.6490 H   0  0  0  0  0  0  0  0  0  0  0  0
   19.7320   22.2870   -5.7010 H   0  0  0  0  0  0  0  0  0  0  0  0
   18.6020   23.7300   -4.0770 H   0  0  0  0  0  0  0  0  0  0  0  0
   16.6720   17.4780    0.8580 H   0  0  0  0  0  0  0  0  0  0  0  0
   15.9310   16.5460   -0.3930 H   0  0  0  0  0  0  0  0  0  0  0  0
   14.5330   17.7590    2.0050 H   0  0  0  0  0  0  0  0  0  0  0  0
   14.8330   16.0640    1.7060 H   0  0  0  0  0  0  0  0  0  0  0  0
   12.1720   17.7920   -1.0310 H   0  0  0  0  0  0  0  0  0  0  0  0
   12.7480   18.9270    0.2310 H   0  0  0  0  0  0  0  0  0  0  0  0
   14.2900   17.6070   -2.0260 H   0  0  0  0  0  0  0  0  0  0  0  0
   13.9080   19.3020   -1.8620 H   0  0  0  0  0  0  0  0  0  0  0  0
   14.9060   21.8060    1.8450 H   0  0  0  0  0  0  0  0  0  0  0  0
   17.7340   18.8580   -4.0860 H   0  0  0  0  0  0  0  0  0  0  0  0
   21.2900   14.5170   -8.2060 H   0  0  0  0  0  0  0  0  0  0  0  0
   21.4430   16.1180   -8.9200 H   0  0  0  0  0  0  0  0  0  0  0  0
   20.1540   14.4160   -6.0400 H   0  0  0  0  0  0  0  0  0  0  0  0
   19.5060   15.8580   -5.2920 H   0  0  0  0  0  0  0  0  0  0  0  0
   15.7380   20.8660   -1.7800 H   0  0  0  0  0  0  0  0  0  0  0  0
   12.5560   16.8160    1.1990 H   0  0  0  0  0  0  0  0  0  0  0  0
   13.3190   16.0830   -0.0500 H   0  0  0  0  0  0  0  0  0  0  0  0
  1  2  2  0  0  0  0
  1  3  1  0  0  0  0
  1 31  1  0  0  0  0
  2 23  1  0  0  0  0
  2 32  1  0  0  0  0
  3  4  2  0  0  0  0
  3 33  1  0  0  0  0
  4  5  1  0  0  0  0
  4 34  1  0  0  0  0
  5 23  2  0  0  0  0
  5 29  1  0  0  0  0
  6 17  2  0  0  0  0
  7  8  2  0  0  0  0
  7 24  1  0  0  0  0
  7 27  1  0  0  0  0
  8 16  1  0  0  0  0
  8 35  1  0  0  0  0
  9 10  1  0  0  0  0
  9 25  2  0  0  0  0
  9 26  1  0  0  0  0
 10 11  2  0  0  0  0
 10 30  1  0  0  0  0
 11 12  1  0  0  0  0
 11 36  1  0  0  0  0
 12 13  2  0  0  0  0
 12 14  1  0  0  0  0
 13 30  1  0  0  0  0
 13 37  1  0  0  0  0
 14 15  1  0  0  0  0
 14 24  2  0  0  0  0
 15 16  2  0  0  0  0
 15 38  1  0  0  0  0
 16 39  1  0  0  0  0
 17 18  1  0  0  0  0
 17 27  1  0  0  0  0
 18 19  1  0  0  0  0
 18 22  1  0  0  0  0
 18 29  1  0  0  0  0
 19 20  1  0  0  0  0
 19 40  1  0  0  0  0
 19 41  1  0  0  0  0
 20 28  1  0  0  0  0
 20 42  1  0  0  0  0
 20 43  1  0  0  0  0
 21 22  1  0  0  0  0
 21 28  1  0  0  0  0
 21 44  1  0  0  0  0
 21 45  1  0  0  0  0
 22 46  1  0  0  0  0
 22 47  1  0  0  0  0
 23 48  1  0  0  0  0
 24 49  1  0  0  0  0
 25 50  1  0  0  0  0
 25 51  1  0  0  0  0
 26 52  1  0  0  0  0
 26 53  1  0  0  0  0
 27 54  1  0  0  0  0
 28 55  1  0  0  0  0
 28 56  1  0  0  0  0
M  CHG  2  25   1  28   1
M  END
>  <COMPND>
    title: molecule 1

$$$$
8C1Y_ligand0.pdb
 OpenBabel06042612053D

 39 40  0  0  0  0  0  0  0  0999 V2000
  -18.3090  -10.2960    7.7740 C   0  0  0  0  0  0  0  0  0  0  0  0
  -14.0960  -17.8650    3.5240 C   0  0  0  0  0  0  0  0  0  0  0  0
  -19.4440  -10.1610    6.9980 C   0  0  0  0  0  0  0  0  0  0  0  0
  -20.4750  -11.0700    7.0980 C   0  0  0  0  0  0  0  0  0  0  0  0
  -15.2850  -15.8790    5.0710 C   0  0  0  0  0  0  0  0  0  0  0  0
  -20.3800  -12.1370    7.9810 C   0  0  0  0  0  0  0  0  0  0  0  0
  -19.2420  -12.2950    8.7780 C   0  0  0  0  0  0  0  0  0  0  0  0
  -15.2150  -14.6220    7.2440 C   0  0  0  0  0  0  0  0  0  0  0  0
  -15.9360  -14.8160    5.9220 C   0  0  0  0  0  0  0  0  0  0  0  0
  -15.4980  -17.2210    5.3610 C   0  0  0  0  0  0  0  0  0  0  0  0
  -14.9090  -18.2100    4.5860 C   0  0  0  0  0  0  0  0  0  0  0  0
  -15.7410  -13.5140    8.0330 N   0  0  0  0  0  0  0  0  0  0  0  0
  -18.2040  -11.3570    8.6590 C   0  0  0  0  0  0  0  0  0  0  0  0
  -14.4810  -11.8540    7.1290 O   0  0  0  0  0  0  0  0  0  0  0  0
  -15.3050  -12.2570    7.9600 C   0  0  0  0  0  0  0  0  0  0  0  0
  -15.7960  -11.3030    9.0260 C   0  0  0  0  0  0  0  0  0  0  0  0
  -17.1210  -11.5720    9.4750 O   0  0  0  0  0  0  0  0  0  0  0  0
  -19.1300  -13.6760    9.9440 P   0  3  0  0  0  0  0  0  0  0  0  0
  -20.2560  -14.6600    9.5980 O   0  5  0  0  0  0  0  0  0  0  0  0
  -17.7500  -14.3310    9.8460 O   0  0  0  0  0  0  0  0  0  0  0  0
  -19.3230  -13.0720   11.3330 O   0  0  0  0  0  0  0  0  0  0  0  0
  -17.2240  -15.1370    6.2070 F   0  0  0  0  0  0  0  0  0  0  0  0
  -15.9690  -13.6160    5.2860 F   0  0  0  0  0  0  0  0  0  0  0  0
  -13.8730  -16.5350    3.2300 C   0  0  0  0  0  0  0  0  0  0  0  0
  -14.4630  -15.5430    4.0000 C   0  0  0  0  0  0  0  0  0  0  0  0
  -17.5220   -9.5620    7.6890 H   0  0  0  0  0  0  0  0  0  0  0  0
  -13.6350  -18.6340    2.9220 H   0  0  0  0  0  0  0  0  0  0  0  0
  -19.5360   -9.3160    6.3310 H   0  0  0  0  0  0  0  0  0  0  0  0
  -21.3790  -10.9060    6.5340 H   0  0  0  0  0  0  0  0  0  0  0  0
  -21.2030  -12.8270    8.0520 H   0  0  0  0  0  0  0  0  0  0  0  0
  -14.1490  -14.4640    7.0640 H   0  0  0  0  0  0  0  0  0  0  0  0
  -15.2830  -15.5310    7.8410 H   0  0  0  0  0  0  0  0  0  0  0  0
  -16.1270  -17.5020    6.1930 H   0  0  0  0  0  0  0  0  0  0  0  0
  -15.0800  -19.2510    4.8180 H   0  0  0  0  0  0  0  0  0  0  0  0
  -16.4540  -13.7400    8.7230 H   0  0  0  0  0  0  0  0  0  0  0  0
  -15.6780  -10.2770    8.6840 H   0  0  0  0  0  0  0  0  0  0  0  0
  -15.1390  -11.4390    9.8820 H   0  0  0  0  0  0  0  0  0  0  0  0
  -13.2380  -16.2670    2.3990 H   0  0  0  0  0  0  0  0  0  0  0  0
  -14.2750  -14.5080    3.7580 H   0  0  0  0  0  0  0  0  0  0  0  0
  1  3  2  0  0  0  0
  1 13  1  0  0  0  0
  1 26  1  0  0  0  0
  2 11  2  0  0  0  0
  2 24  1  0  0  0  0
  2 27  1  0  0  0  0
  3  4  1  0  0  0  0
  3 28  1  0  0  0  0
  4  6  2  0  0  0  0
  4 29  1  0  0  0  0
  5  9  1  0  0  0  0
  5 10  2  0  0  0  0
  5 25  1  0  0  0  0
  6  7  1  0  0  0  0
  6 30  1  0  0  0  0
  7 13  2  0  0  0  0
  7 18  1  0  0  0  0
  8  9  1  0  0  0  0
  8 12  1  0  0  0  0
  8 31  1  0  0  0  0
  8 32  1  0  0  0  0
  9 22  1  0  0  0  0
  9 23  1  0  0  0  0
 10 11  1  0  0  0  0
 10 33  1  0  0  0  0
 11 34  1  0  0  0  0
 12 15  1  0  0  0  0
 12 35  1  0  0  0  0
 13 17  1  0  0  0  0
 14 15  2  0  0  0  0
 15 16  1  0  0  0  0
 16 17  1  0  0  0  0
 16 36  1  0  0  0  0
 16 37  1  0  0  0  0
 18 19  1  0  0  0  0
 18 20  2  0  0  0  0
 18 21  2  0  0  0  0
 24 25  2  0  0  0  0
 24 38  1  0  0  0  0
 25 39  1  0  0  0  0
M  CHG  2  18   1  19  -1
M  END
>  <COMPND>
    title: molecule 1

$$$$
8G9P_ligand0.pdb
 OpenBabel06042612053D

149156  0  0  1  0  0  0  0  0999 V2000
   25.3110  -30.0240    1.8310 C   0  0  0  0  0  0  0  0  0  0  0  0
   31.7050  -27.5270   -1.8320 C   0  0  0  0  0  0  0  0  0  0  0  0
   32.6590  -27.0680   -2.7440 C   0  0  0  0  0  0  0  0  0  0  0  0
   33.1620  -27.9230   -3.7330 C   0  0  0  0  0  0  0  0  0  0  0  0
   32.6770  -29.2170   -3.7880 C   0  0  0  0  0  0  0  0  0  0  0  0
   33.1760  -30.1430   -4.8730 C   0  0  0  0  0  0  0  0  0  0  0  0
   34.7010  -30.3260   -4.8610 C   0  0  1  0  0  0  0  0  0  0  0  0
   36.2680  -28.4890   -5.3630 C   0  0  0  0  0  0  0  0  0  0  0  0
   36.7440  -27.5290   -6.4400 C   0  0  2  0  0  0  0  0  0  0  0  0
   38.2660  -27.5900   -6.6470 C   0  0  0  0  0  0  0  0  0  0  0  0
   38.7260  -28.9870   -7.0750 C   0  0  0  0  0  0  0  0  0  0  0  0
   26.5340  -30.0770    2.7370 C   0  0  0  0  0  0  0  0  0  0  0  0
   38.7550  -26.6140   -7.7080 C   0  0  0  0  0  0  0  0  0  0  0  0
   36.9450  -25.2780   -5.1590 C   0  0  0  0  0  0  0  0  0  0  0  0
   36.2600  -23.9480   -5.5440 C   0  0  0  0  0  0  0  0  0  0  0  0
   34.9150  -24.3320   -6.1260 C   0  0  1  0  0  0  0  0  0  0  0  0
   33.8720  -24.4020   -5.0280 C   0  0  0  0  0  0  0  0  0  0  0  0
   32.5540  -24.3680   -5.7680 C   0  0  0  0  0  0  0  0  0  0  0  0
   34.2700  -23.4160   -7.1670 C   0  0  0  0  0  0  0  0  0  0  0  0
   31.8950  -23.6450   -7.9840 C   0  0  0  0  0  0  0  0  0  0  0  0
   32.1200  -22.9000   -9.2220 C   0  0  0  0  0  0  0  0  0  0  0  0
   31.1160  -22.1270   -9.6770 C   0  0  0  0  0  0  0  0  0  0  0  0
   28.3610  -30.0790    1.0120 C   0  0  0  0  0  0  0  0  0  0  0  0
   31.3050  -21.3870  -10.9970 C   0  0  0  0  0  0  0  0  0  0  0  0
   31.8410  -22.4290  -11.9810 C   0  0  0  0  0  0  0  0  0  0  0  0
   29.9450  -20.9120  -11.4980 C   0  0  0  0  0  0  0  0  0  0  0  0
   31.7870  -19.0750  -10.2050 C   0  0  0  0  0  0  0  0  0  0  0  0
   32.5180  -19.7880  -12.3490 C   0  0  0  0  0  0  0  0  0  0  0  0
   35.1550  -25.7260   -6.6840 C   0  0  0  0  0  0  0  0  0  0  0  0
   35.1320  -31.7490   -5.1930 C   0  0  0  0  0  0  0  0  0  0  0  0
   35.4400  -34.0690   -4.3670 C   0  0  0  0  0  0  0  0  0  0  0  0
   34.2430  -34.9610   -4.0480 C   0  0  0  0  0  0  0  0  0  0  0  0
   33.7720  -34.5940   -2.6450 C   0  0  0  0  0  0  0  0  0  0  0  0
   29.1400  -31.0320    0.3500 C   0  0  0  0  0  0  0  0  0  0  0  0
   33.4900  -33.0850   -2.5810 C   0  0  1  0  0  0  0  0  0  0  0  0
   33.2010  -32.7610   -1.1660 C   0  0  0  0  0  0  0  0  0  0  0  0
   31.7960  -33.3250    0.7560 C   0  0  0  0  0  0  0  0  0  0  0  0
   30.6110  -34.2290    1.0430 C   0  0  0  0  0  0  0  0  0  0  0  0
   30.8380  -35.6070    0.4010 C   0  0  0  0  0  0  0  0  0  0  0  0
   30.4870  -34.3770    2.5500 C   0  0  0  0  0  0  0  0  0  0  0  0
   29.3480  -33.6640    0.4340 C   0  0  0  0  0  0  0  0  0  0  0  0
   28.8430  -32.2890    0.8470 C   0  0  0  0  0  0  0  0  0  0  0  0
   27.7800  -32.0650    1.8500 C   0  0  0  0  0  0  0  0  0  0  0  0
   27.0630  -33.1190    2.6410 C   0  0  0  0  0  0  0  0  0  0  0  0
   30.0590  -30.6260   -0.6100 C   0  0  0  0  0  0  0  0  0  0  0  0
   27.2120  -33.2340    4.0170 C   0  0  0  0  0  0  0  0  0  0  0  0
   25.7120  -35.0380    4.0080 C   0  0  0  0  0  0  0  0  0  0  0  0
   25.5330  -34.9670    2.6420 C   0  0  0  0  0  0  0  0  0  0  0  0
   26.2310  -33.9820    1.9550 C   0  0  0  0  0  0  0  0  0  0  0  0
   28.0720  -32.3430    4.8360 C   0  0  2  0  0  0  0  0  0  0  0  0
   29.0070  -33.1220    5.7620 C   0  0  0  0  0  0  0  0  0  0  0  0
   27.8550  -30.4110    6.2170 C   0  0  0  0  0  0  0  0  0  0  0  0
   31.7200  -29.6750   -2.8880 C   0  0  0  0  0  0  0  0  0  0  0  0
   30.2080  -29.2780   -0.9390 C   0  0  0  0  0  0  0  0  0  0  0  0
   29.4200  -28.3140   -0.2880 C   0  0  0  0  0  0  0  0  0  0  0  0
   28.5050  -28.7310    0.6810 C   0  0  0  0  0  0  0  0  0  0  0  0
   31.2080  -28.8200   -1.9220 C   0  0  0  0  0  0  0  0  0  0  0  0
   27.5800  -30.7280    1.9000 N   0  0  0  0  0  0  0  0  0  0  0  0
   35.3420  -29.3770   -5.7730 N   0  0  0  0  0  0  0  0  0  0  0  0
   36.2680  -26.1590   -6.1280 N   0  0  0  0  0  0  0  0  0  0  0  0
   32.8520  -23.7660   -7.0570 N   0  0  0  0  0  0  0  0  0  0  0  0
   32.2610  -20.2440  -10.9710 N   0  3  0  0  0  0  0  0  0  0  0  0
   35.0450  -32.6650   -4.2110 N   0  0  0  0  0  0  0  0  0  0  0  0
   34.6340  -32.2720   -2.9790 N   0  0  0  0  0  0  0  0  0  0  0  0
   26.5200  -34.1870    4.6770 N   0  0  0  0  0  0  0  0  0  0  0  0
   36.6950  -28.4100   -4.2130 O   0  0  0  0  0  0  0  0  0  0  0  0
   30.7820  -24.1550   -7.8600 O   0  0  0  0  0  0  0  0  0  0  0  0
   34.4020  -26.3300   -7.4240 O   0  0  0  0  0  0  0  0  0  0  0  0
   35.5390  -31.9840   -6.3270 O   0  0  0  0  0  0  0  0  0  0  0  0
   33.8710  -32.0590   -0.4390 O   0  0  0  0  0  0  0  0  0  0  0  0
   32.0240  -33.3930   -0.6460 O   0  0  0  0  0  0  0  0  0  0  0  0
   27.1920  -31.5410    5.6440 O   0  0  0  0  0  0  0  0  0  0  0  0
   24.4840  -29.5160    2.3240 H   0  0  0  0  0  0  0  0  0  0  0  0
   25.5140  -29.4770    0.9090 H   0  0  0  0  0  0  0  0  0  0  0  0
   24.9680  -31.0230    1.5600 H   0  0  0  0  0  0  0  0  0  0  0  0
   31.3910  -26.8410   -1.0670 H   0  0  0  0  0  0  0  0  0  0  0  0
   33.0300  -26.0610   -2.6550 H   0  0  0  0  0  0  0  0  0  0  0  0
   33.8860  -27.5570   -4.4410 H   0  0  0  0  0  0  0  0  0  0  0  0
   32.8460  -29.7590   -5.8370 H   0  0  0  0  0  0  0  0  0  0  0  0
   32.6710  -31.1040   -4.7720 H   0  0  0  0  0  0  0  0  0  0  0  0
   35.0510  -30.0930   -3.8570 H   0  0  0  0  0  0  0  0  0  0  0  0
   36.3220  -27.8490   -7.3940 H   0  0  0  0  0  0  0  0  0  0  0  0
   38.7750  -27.3490   -5.7120 H   0  0  0  0  0  0  0  0  0  0  0  0
   39.7790  -28.9880   -7.3510 H   0  0  0  0  0  0  0  0  0  0  0  0
   38.6060  -29.7100   -6.2700 H   0  0  0  0  0  0  0  0  0  0  0  0
   38.1680  -29.3460   -7.9400 H   0  0  0  0  0  0  0  0  0  0  0  0
   26.3060  -30.6550    3.6240 H   0  0  0  0  0  0  0  0  0  0  0  0
   26.8620  -29.0840    3.0470 H   0  0  0  0  0  0  0  0  0  0  0  0
   39.8340  -26.6910   -7.8520 H   0  0  0  0  0  0  0  0  0  0  0  0
   38.2760  -26.8050   -8.6670 H   0  0  0  0  0  0  0  0  0  0  0  0
   38.5510  -25.5770   -7.4500 H   0  0  0  0  0  0  0  0  0  0  0  0
   36.6970  -25.5810   -4.1410 H   0  0  0  0  0  0  0  0  0  0  0  0
   38.0250  -25.2240   -5.2680 H   0  0  0  0  0  0  0  0  0  0  0  0
   36.8250  -23.4320   -6.3060 H   0  0  0  0  0  0  0  0  0  0  0  0
   36.1810  -23.2600   -4.7090 H   0  0  0  0  0  0  0  0  0  0  0  0
   33.9290  -23.5210   -4.4030 H   0  0  0  0  0  0  0  0  0  0  0  0
   33.9860  -25.2650   -4.3810 H   0  0  0  0  0  0  0  0  0  0  0  0
   31.8100  -23.7880   -5.2200 H   0  0  0  0  0  0  0  0  0  0  0  0
   32.1650  -25.3790   -5.9000 H   0  0  0  0  0  0  0  0  0  0  0  0
   34.6710  -23.5970   -8.1640 H   0  0  0  0  0  0  0  0  0  0  0  0
   34.4120  -22.3650   -6.9180 H   0  0  0  0  0  0  0  0  0  0  0  0
   33.0930  -22.9050   -9.6580 H   0  0  0  0  0  0  0  0  0  0  0  0
   30.4280  -22.9720  -10.0010 H   0  0  0  0  0  0  0  0  0  0  0  0
   31.6680  -22.1510  -13.0210 H   0  0  0  0  0  0  0  0  0  0  0  0
   32.9070  -22.6220  -11.8650 H   0  0  0  0  0  0  0  0  0  0  0  0
   31.3360  -23.3920  -11.8900 H   0  0  0  0  0  0  0  0  0  0  0  0
   29.9730  -20.4920  -12.4920 H   0  0  0  0  0  0  0  0  0  0  0  0
   29.3120  -21.7910  -11.6330 H   0  0  0  0  0  0  0  0  0  0  0  0
   29.3610  -20.3150  -10.8740 H   0  0  0  0  0  0  0  0  0  0  0  0
   32.6090  -18.3660  -10.1090 H   0  0  0  0  0  0  0  0  0  0  0  0
   30.9940  -18.5400  -10.7180 H   0  0  0  0  0  0  0  0  0  0  0  0
   31.5030  -19.3100   -9.1860 H   0  0  0  0  0  0  0  0  0  0  0  0
   33.2050  -18.9420  -12.2970 H   0  0  0  0  0  0  0  0  0  0  0  0
   33.0590  -20.5020  -12.9680 H   0  0  0  0  0  0  0  0  0  0  0  0
   31.6590  -19.4080  -12.8960 H   0  0  0  0  0  0  0  0  0  0  0  0
   35.7980  -34.2880   -5.3730 H   0  0  0  0  0  0  0  0  0  0  0  0
   36.2700  -34.2820   -3.6910 H   0  0  0  0  0  0  0  0  0  0  0  0
   34.5220  -36.0110   -4.0870 H   0  0  0  0  0  0  0  0  0  0  0  0
   33.4450  -34.8090   -4.7770 H   0  0  0  0  0  0  0  0  0  0  0  0
   34.5380  -34.8800   -1.9210 H   0  0  0  0  0  0  0  0  0  0  0  0
   32.8790  -35.1730   -2.4040 H   0  0  0  0  0  0  0  0  0  0  0  0
   32.6400  -32.8320   -3.2080 H   0  0  0  0  0  0  0  0  0  0  0  0
   32.6820  -33.7040    1.2640 H   0  0  0  0  0  0  0  0  0  0  0  0
   31.6260  -32.3000    1.0870 H   0  0  0  0  0  0  0  0  0  0  0  0
   30.0700  -36.3130    0.7140 H   0  0  0  0  0  0  0  0  0  0  0  0
   30.8090  -35.5810   -0.6890 H   0  0  0  0  0  0  0  0  0  0  0  0
   31.8050  -36.0190    0.6860 H   0  0  0  0  0  0  0  0  0  0  0  0
   29.6280  -34.9900    2.8240 H   0  0  0  0  0  0  0  0  0  0  0  0
   31.3740  -34.8440    2.9780 H   0  0  0  0  0  0  0  0  0  0  0  0
   30.3690  -33.4060    3.0300 H   0  0  0  0  0  0  0  0  0  0  0  0
   28.5490  -34.3910    0.5710 H   0  0  0  0  0  0  0  0  0  0  0  0
   29.4880  -33.6330   -0.6430 H   0  0  0  0  0  0  0  0  0  0  0  0
   30.6640  -31.3730   -1.0870 H   0  0  0  0  0  0  0  0  0  0  0  0
   25.1980  -35.7830    4.5960 H   0  0  0  0  0  0  0  0  0  0  0  0
   24.8850  -35.6590    2.1250 H   0  0  0  0  0  0  0  0  0  0  0  0
   26.1370  -33.8900    0.8900 H   0  0  0  0  0  0  0  0  0  0  0  0
   28.6830  -31.7020    4.2010 H   0  0  0  0  0  0  0  0  0  0  0  0
   29.7290  -32.4860    6.2680 H   0  0  0  0  0  0  0  0  0  0  0  0
   28.4530  -33.6640    6.5290 H   0  0  0  0  0  0  0  0  0  0  0  0
   29.5850  -33.8570    5.2040 H   0  0  0  0  0  0  0  0  0  0  0  0
   27.1600  -29.8800    6.8660 H   0  0  0  0  0  0  0  0  0  0  0  0
   28.7290  -30.6620    6.8090 H   0  0  0  0  0  0  0  0  0  0  0  0
   28.1560  -29.7170    5.4330 H   0  0  0  0  0  0  0  0  0  0  0  0
   31.3630  -30.6860   -2.9720 H   0  0  0  0  0  0  0  0  0  0  0  0
   29.4790  -27.2670   -0.5210 H   0  0  0  0  0  0  0  0  0  0  0  0
   27.8930  -27.9920    1.1760 H   0  0  0  0  0  0  0  0  0  0  0  0
   35.0690  -29.3980   -6.7490 H   0  0  0  0  0  0  0  0  0  0  0  0
   33.1300  -20.5650  -10.5670 H   0  0  0  0  0  0  0  0  0  0  0  0
   34.3740  -31.2880   -3.0100 H   0  0  0  0  0  0  0  0  0  0  0  0
  1 12  1  0  0  0  0
  1 73  1  0  0  0  0
  1 74  1  0  0  0  0
  1 75  1  0  0  0  0
  2  3  2  0  0  0  0
  2 57  1  0  0  0  0
  2 76  1  0  0  0  0
  3  4  1  0  0  0  0
  3 77  1  0  0  0  0
  4  5  2  0  0  0  0
  4 78  1  0  0  0  0
  5  6  1  0  0  0  0
  5 53  1  0  0  0  0
  6  7  1  0  0  0  0
  6 79  1  0  0  0  0
  6 80  1  0  0  0  0
  7 30  1  0  0  0  0
  7 59  1  0  0  0  0
  7 81  1  1  0  0  0
  8  9  1  0  0  0  0
  8 59  1  0  0  0  0
  8 66  2  0  0  0  0
  9 10  1  0  0  0  0
  9 60  1  0  0  0  0
  9 82  1  6  0  0  0
 10 11  1  0  0  0  0
 10 13  1  0  0  0  0
 10 83  1  0  0  0  0
 11 84  1  0  0  0  0
 11 85  1  0  0  0  0
 11 86  1  0  0  0  0
 12 58  1  0  0  0  0
 12 87  1  0  0  0  0
 12 88  1  0  0  0  0
 13 89  1  0  0  0  0
 13 90  1  0  0  0  0
 13 91  1  0  0  0  0
 14 15  1  0  0  0  0
 14 60  1  0  0  0  0
 14 92  1  0  0  0  0
 14 93  1  0  0  0  0
 15 16  1  0  0  0  0
 15 94  1  0  0  0  0
 15 95  1  0  0  0  0
 16 17  1  0  0  0  0
 16 19  1  0  0  0  0
 16 29  1  6  0  0  0
 17 18  1  0  0  0  0
 17 96  1  0  0  0  0
 17 97  1  0  0  0  0
 18 61  1  0  0  0  0
 18 98  1  0  0  0  0
 18 99  1  0  0  0  0
 19 61  1  0  0  0  0
 19100  1  0  0  0  0
 19101  1  0  0  0  0
 20 21  1  0  0  0  0
 20 61  1  0  0  0  0
 20 67  2  0  0  0  0
 21 22  2  0  0  0  0
 21102  1  0  0  0  0
 22 24  1  0  0  0  0
 22103  1  0  0  0  0
 23 34  2  0  0  0  0
 23 56  1  0  0  0  0
 23 58  1  0  0  0  0
 24 25  1  0  0  0  0
 24 26  1  0  0  0  0
 24 62  1  0  0  0  0
 25104  1  0  0  0  0
 25105  1  0  0  0  0
 25106  1  0  0  0  0
 26107  1  0  0  0  0
 26108  1  0  0  0  0
 26109  1  0  0  0  0
 27 62  1  0  0  0  0
 27110  1  0  0  0  0
 27111  1  0  0  0  0
 27112  1  0  0  0  0
 28 62  1  0  0  0  0
 28113  1  0  0  0  0
 28114  1  0  0  0  0
 28115  1  0  0  0  0
 29 60  1  0  0  0  0
 29 68  2  0  0  0  0
 30 63  1  0  0  0  0
 30 69  2  0  0  0  0
 31 32  1  0  0  0  0
 31 63  1  0  0  0  0
 31116  1  0  0  0  0
 31117  1  0  0  0  0
 32 33  1  0  0  0  0
 32118  1  0  0  0  0
 32119  1  0  0  0  0
 33 35  1  0  0  0  0
 33120  1  0  0  0  0
 33121  1  0  0  0  0
 34 42  1  0  0  0  0
 34 45  1  0  0  0  0
 35 36  1  0  0  0  0
 35 64  1  0  0  0  0
 35122  1  6  0  0  0
 36 70  2  0  0  0  0
 36 71  1  0  0  0  0
 37 38  1  0  0  0  0
 37 71  1  0  0  0  0
 37123  1  0  0  0  0
 37124  1  0  0  0  0
 38 39  1  0  0  0  0
 38 40  1  0  0  0  0
 38 41  1  0  0  0  0
 39125  1  0  0  0  0
 39126  1  0  0  0  0
 39127  1  0  0  0  0
 40128  1  0  0  0  0
 40129  1  0  0  0  0
 40130  1  0  0  0  0
 41 42  1  0  0  0  0
 41131  1  0  0  0  0
 41132  1  0  0  0  0
 42 43  2  0  0  0  0
 43 44  1  0  0  0  0
 43 58  1  0  0  0  0
 44 46  2  0  0  0  0
 44 49  1  0  0  0  0
 45 54  2  0  0  0  0
 45133  1  0  0  0  0
 46 50  1  0  0  0  0
 46 65  1  0  0  0  0
 47 48  1  0  0  0  0
 47 65  2  0  0  0  0
 47134  1  0  0  0  0
 48 49  2  0  0  0  0
 48135  1  0  0  0  0
 49136  1  0  0  0  0
 50 51  1  0  0  0  0
 50 72  1  0  0  0  0
 50137  1  6  0  0  0
 51138  1  0  0  0  0
 51139  1  0  0  0  0
 51140  1  0  0  0  0
 52 72  1  0  0  0  0
 52141  1  0  0  0  0
 52142  1  0  0  0  0
 52143  1  0  0  0  0
 53 57  2  0  0  0  0
 53144  1  0  0  0  0
 54 55  1  0  0  0  0
 54 57  1  0  0  0  0
 55 56  2  0  0  0  0
 55145  1  0  0  0  0
 56146  1  0  0  0  0
 59147  1  0  0  0  0
 62148  1  0  0  0  0
 63 64  1  0  0  0  0
 64149  1  0  0  0  0
M  CHG  1  62   1
M  END
>  <COMPND>
    title: molecule 1

$$$$
8G9Q_ligand0.pdb
 OpenBabel06042612053D

 70 71  0  0  1  0  0  0  0  0999 V2000
  -14.9110   -7.6760  -33.0240 C   0  0  0  0  0  0  0  0  0  0  0  0
  -19.5790   -5.3030  -34.4790 C   0  0  0  0  0  0  0  0  0  0  0  0
  -18.7440   -5.5710  -33.3900 C   0  0  0  0  0  0  0  0  0  0  0  0
  -17.9090   -4.5750  -32.8930 C   0  0  0  0  0  0  0  0  0  0  0  0
  -17.9030   -3.3170  -33.4740 C   0  0  0  0  0  0  0  0  0  0  0  0
  -18.7340   -3.0470  -34.5550 C   0  0  0  0  0  0  0  0  0  0  0  0
  -19.5660   -4.0540  -35.0640 C   0  0  0  0  0  0  0  0  0  0  0  0
  -21.1820   -4.9680  -38.2110 C   0  0  0  0  0  0  0  0  0  0  0  0
  -22.2990   -4.0590  -38.6460 C   0  0  2  0  0  0  0  0  0  0  0  0
  -22.3690   -2.3440  -36.9580 C   0  0  0  0  0  0  0  0  0  0  0  0
  -21.9650   -0.9410  -36.5680 C   0  0  0  0  0  0  0  0  0  0  0  0
  -16.5270   -8.2820  -34.7750 C   0  0  0  0  0  0  0  0  0  0  0  0
  -21.9230   -0.7730  -35.0470 C   0  0  0  0  0  0  0  0  0  0  0  0
  -21.1720    0.5090  -34.6940 C   0  0  0  0  0  0  0  0  0  0  0  0
  -22.4920   -4.0720  -40.1650 C   0  0  0  0  0  0  0  0  0  0  0  0
  -23.5360   -3.0680  -40.6450 C   0  0  0  0  0  0  0  0  0  0  0  0
  -22.8950   -5.4860  -40.5860 C   0  0  0  0  0  0  0  0  0  0  0  0
  -17.8520   -8.8730  -35.1350 C   0  0  2  0  0  0  0  0  0  0  0  0
  -17.7180  -10.3760  -35.3500 C   0  0  0  0  0  0  0  0  0  0  0  0
  -19.0470  -10.9580  -35.8220 C   0  0  0  0  0  0  0  0  0  0  0  0
  -19.4690  -10.2260  -37.1000 C   0  0  0  0  0  0  0  0  0  0  0  0
  -20.5740   -8.0360  -36.8490 C   0  0  0  0  0  0  0  0  0  0  0  0
  -20.4150   -6.5710  -36.5380 C   0  0  2  0  0  0  0  0  0  0  0  0
  -20.4780   -6.4020  -35.0140 C   0  0  0  0  0  0  0  0  0  0  0  0
  -19.4950   -8.8020  -36.7720 N   0  0  0  0  0  0  0  0  0  0  0  0
  -18.3470   -8.2250  -36.3770 N   0  0  0  0  0  0  0  0  0  0  0  0
  -21.4310   -5.7430  -37.1580 N   0  0  0  0  0  0  0  0  0  0  0  0
  -22.0040   -2.7250  -38.1750 N   0  0  0  0  0  0  0  0  0  0  0  0
  -16.1660   -8.2490  -33.3830 O   0  0  0  0  0  0  0  0  0  0  0  0
  -15.7450   -7.8130  -35.5850 O   0  0  0  0  0  0  0  0  0  0  0  0
  -21.6700   -8.4780  -37.1660 O   0  0  0  0  0  0  0  0  0  0  0  0
  -18.7260   -1.8180  -35.1230 O   0  0  0  0  0  0  0  0  0  0  0  0
  -20.0930   -4.9640  -38.7710 O   0  0  0  0  0  0  0  0  0  0  0  0
  -22.9830   -3.0890  -36.2030 O   0  0  0  0  0  0  0  0  0  0  0  0
  -20.9530    0.6840  -32.9050 S   0  5  0  0  0  0  0  0  0  0  0  0
  -14.5190   -8.1940  -32.1490 H   0  0  0  0  0  0  0  0  0  0  0  0
  -14.1570   -7.7460  -33.8070 H   0  0  0  0  0  0  0  0  0  0  0  0
  -15.0450   -6.6300  -32.7530 H   0  0  0  0  0  0  0  0  0  0  0  0
  -18.7430   -6.5460  -32.9220 H   0  0  0  0  0  0  0  0  0  0  0  0
  -17.2630   -4.7840  -32.0520 H   0  0  0  0  0  0  0  0  0  0  0  0
  -17.2440   -2.5530  -33.0910 H   0  0  0  0  0  0  0  0  0  0  0  0
  -20.2050   -3.8240  -35.8970 H   0  0  0  0  0  0  0  0  0  0  0  0
  -23.2390   -4.4120  -38.2180 H   0  0  0  0  0  0  0  0  0  0  0  0
  -22.6530   -0.2230  -37.0130 H   0  0  0  0  0  0  0  0  0  0  0  0
  -20.9790   -0.7390  -36.9890 H   0  0  0  0  0  0  0  0  0  0  0  0
  -21.4220   -1.6210  -34.5760 H   0  0  0  0  0  0  0  0  0  0  0  0
  -22.9350   -0.7420  -34.6420 H   0  0  0  0  0  0  0  0  0  0  0  0
  -21.7190    1.3730  -35.0690 H   0  0  0  0  0  0  0  0  0  0  0  0
  -20.1890    0.5210  -35.1580 H   0  0  0  0  0  0  0  0  0  0  0  0
  -21.5530   -3.8190  -40.6620 H   0  0  0  0  0  0  0  0  0  0  0  0
  -23.6840   -3.1430  -41.7230 H   0  0  0  0  0  0  0  0  0  0  0  0
  -24.5000   -3.2320  -40.1630 H   0  0  0  0  0  0  0  0  0  0  0  0
  -23.2340   -2.0410  -40.4420 H   0  0  0  0  0  0  0  0  0  0  0  0
  -23.1800   -5.5090  -41.6380 H   0  0  0  0  0  0  0  0  0  0  0  0
  -22.0780   -6.1970  -40.4750 H   0  0  0  0  0  0  0  0  0  0  0  0
  -23.7490   -5.8550  -40.0180 H   0  0  0  0  0  0  0  0  0  0  0  0
  -18.5550   -8.6870  -34.3230 H   0  0  0  0  0  0  0  0  0  0  0  0
  -17.4270  -10.8580  -34.4200 H   0  0  0  0  0  0  0  0  0  0  0  0
  -16.9380  -10.5950  -36.0790 H   0  0  0  0  0  0  0  0  0  0  0  0
  -19.8090  -10.8460  -35.0490 H   0  0  0  0  0  0  0  0  0  0  0  0
  -18.9440  -12.0260  -36.0130 H   0  0  0  0  0  0  0  0  0  0  0  0
  -20.4320  -10.6020  -37.4470 H   0  0  0  0  0  0  0  0  0  0  0  0
  -18.7530  -10.4030  -37.9040 H   0  0  0  0  0  0  0  0  0  0  0  0
  -19.4450   -6.2050  -36.8730 H   0  0  0  0  0  0  0  0  0  0  0  0
  -21.4970   -6.1680  -34.7070 H   0  0  0  0  0  0  0  0  0  0  0  0
  -20.2440   -7.3230  -34.4800 H   0  0  0  0  0  0  0  0  0  0  0  0
  -18.5100   -7.2350  -36.2110 H   0  0  0  0  0  0  0  0  0  0  0  0
  -22.3540   -5.7340  -36.7410 H   0  0  0  0  0  0  0  0  0  0  0  0
  -21.4800   -2.0970  -38.7770 H   0  0  0  0  0  0  0  0  0  0  0  0
  -18.2840   -1.1570  -34.6010 H   0  0  0  0  0  0  0  0  0  0  0  0
  1 29  1  0  0  0  0
  1 36  1  0  0  0  0
  1 37  1  0  0  0  0
  1 38  1  0  0  0  0
  2  3  2  0  0  0  0
  2  7  1  0  0  0  0
  2 24  1  0  0  0  0
  3  4  1  0  0  0  0
  3 39  1  0  0  0  0
  4  5  2  0  0  0  0
  4 40  1  0  0  0  0
  5  6  1  0  0  0  0
  5 41  1  0  0  0  0
  6  7  2  0  0  0  0
  6 32  1  0  0  0  0
  7 42  1  0  0  0  0
  8  9  1  0  0  0  0
  8 27  1  0  0  0  0
  8 33  2  0  0  0  0
  9 15  1  0  0  0  0
  9 28  1  0  0  0  0
  9 43  1  1  0  0  0
 10 11  1  0  0  0  0
 10 28  1  0  0  0  0
 10 34  2  0  0  0  0
 11 13  1  0  0  0  0
 11 44  1  0  0  0  0
 11 45  1  0  0  0  0
 12 18  1  0  0  0  0
 12 29  1  0  0  0  0
 12 30  2  0  0  0  0
 13 14  1  0  0  0  0
 13 46  1  0  0  0  0
 13 47  1  0  0  0  0
 14 35  1  0  0  0  0
 14 48  1  0  0  0  0
 14 49  1  0  0  0  0
 15 16  1  0  0  0  0
 15 17  1  0  0  0  0
 15 50  1  0  0  0  0
 16 51  1  0  0  0  0
 16 52  1  0  0  0  0
 16 53  1  0  0  0  0
 17 54  1  0  0  0  0
 17 55  1  0  0  0  0
 17 56  1  0  0  0  0
 18 19  1  0  0  0  0
 18 26  1  0  0  0  0
 18 57  1  1  0  0  0
 19 20  1  0  0  0  0
 19 58  1  0  0  0  0
 19 59  1  0  0  0  0
 20 21  1  0  0  0  0
 20 60  1  0  0  0  0
 20 61  1  0  0  0  0
 21 25  1  0  0  0  0
 21 62  1  0  0  0  0
 21 63  1  0  0  0  0
 22 23  1  0  0  0  0
 22 25  1  0  0  0  0
 22 31  2  0  0  0  0
 23 24  1  0  0  0  0
 23 27  1  0  0  0  0
 23 64  1  6  0  0  0
 24 65  1  0  0  0  0
 24 66  1  0  0  0  0
 25 26  1  0  0  0  0
 26 67  1  0  0  0  0
 27 68  1  0  0  0  0
 28 69  1  0  0  0  0
 32 70  1  0  0  0  0
M  CHG  1  35  -1
M  END
>  <COMPND>
    title: molecule 1

$$$$
8JYC_ligand0.pdb
 OpenBabel06042612053D

 23 22  0  0  0  0  0  0  0  0999 V2000
   52.4420    6.2990   -4.1640 C   0  0  0  0  0  0  0  0  0  0  0  0
   52.9040    6.6400   -5.4590 O   0  0  0  0  0  0  0  0  0  0  0  0
   52.6220    7.5100   -3.2990 C   0  0  0  0  0  0  0  0  0  0  0  0
   51.7590    7.9830   -2.4180 C   0  0  0  0  0  0  0  0  0  0  0  0
   50.4130    7.3790   -2.1840 C   0  0  0  0  0  0  0  0  0  0  0  0
   52.0550    9.1930   -1.5770 C   0  0  0  0  0  0  0  0  0  0  0  0
   52.5060    5.6850   -6.6710 P   0  0  2  0  0  0  0  0  0  0  0  0
   52.9770    6.4490   -7.8630 O   0  5  0  0  0  0  0  0  0  0  0  0
   51.0640    5.2990   -6.5330 O   0  0  0  0  0  0  0  0  0  0  0  0
   53.3820    4.3830   -6.3470 O   0  0  0  0  0  0  0  0  0  0  0  0
   54.9820    3.9920   -6.2710 P   0  3  0  0  0  0  0  0  0  0  0  0
   55.2760    2.9550   -7.3630 O   0  5  0  0  0  0  0  0  0  0  0  0
   55.0060    3.3750   -4.9420 O   0  0  0  0  0  0  0  0  0  0  0  0
   55.8000    5.2550   -6.4250 O   0  0  0  0  0  0  0  0  0  0  0  0
   53.0500    5.4820   -3.7750 H   0  0  0  0  0  0  0  0  0  0  0  0
   51.4100    5.9610   -4.2010 H   0  0  0  0  0  0  0  0  0  0  0  0
   53.5750    7.9950   -3.4170 H   0  0  0  0  0  0  0  0  0  0  0  0
   50.1730    7.4220   -1.1210 H   0  0  0  0  0  0  0  0  0  0  0  0
   49.6400    7.9380   -2.7070 H   0  0  0  0  0  0  0  0  0  0  0  0
   50.3330    6.3320   -2.4650 H   0  0  0  0  0  0  0  0  0  0  0  0
   51.8870    8.9770   -0.5230 H   0  0  0  0  0  0  0  0  0  0  0  0
   53.0920    9.5050   -1.6810 H   0  0  0  0  0  0  0  0  0  0  0  0
   51.4080   10.0280   -1.8430 H   0  0  0  0  0  0  0  0  0  0  0  0
  1  2  1  0  0  0  0
  1  3  1  0  0  0  0
  1 15  1  0  0  0  0
  1 16  1  0  0  0  0
  2  7  1  0  0  0  0
  3  4  2  0  0  0  0
  3 17  1  0  0  0  0
  4  5  1  0  0  0  0
  4  6  1  0  0  0  0
  5 18  1  0  0  0  0
  5 19  1  0  0  0  0
  5 20  1  0  0  0  0
  6 21  1  0  0  0  0
  6 22  1  0  0  0  0
  6 23  1  0  0  0  0
  7  8  1  6  0  0  0
  7  9  2  0  0  0  0
  7 10  1  0  0  0  0
 10 11  1  0  0  0  0
 11 12  1  0  0  0  0
 11 13  2  0  0  0  0
 11 14  2  0  0  0  0
M  CHG  3   8  -1  11   1  12  -1
M  END
>  <COMPND>
    title: molecule 1

$$$$
8JYE_ligand0.pdb
 OpenBabel06042612053D

 24 23  0  0  0  0  0  0  0  0999 V2000
   52.5280    5.4110   -6.9280 P   0  0  1  0  0  0  0  0  0  0  0  0
   53.0060    6.1910   -8.1030 O   0  5  0  0  0  0  0  0  0  0  0  0
   51.0630    5.0250   -6.8080 O   0  0  0  0  0  0  0  0  0  0  0  0
   53.3600    4.1030   -6.6080 O   0  0  0  0  0  0  0  0  0  0  0  0
   55.0070    3.6920   -6.4880 P   0  3  0  0  0  0  0  0  0  0  0  0
   55.7880    4.9800   -6.7060 O   0  5  0  0  0  0  0  0  0  0  0  0
   55.1800    2.6880   -7.6050 O   0  0  0  0  0  0  0  0  0  0  0  0
   54.9800    3.0850   -5.1410 O   0  0  0  0  0  0  0  0  0  0  0  0
   50.5390    7.1630   -2.3630 C   0  0  0  0  0  0  0  0  0  0  0  0
   52.7790    7.1150   -3.4630 C   0  0  0  0  0  0  0  0  0  0  0  0
   52.5960    5.9170   -4.3590 C   0  0  0  0  0  0  0  0  0  0  0  0
   52.9160    6.3640   -5.6780 O   0  0  0  0  0  0  0  0  0  0  0  0
   51.9590    7.6130   -2.5320 C   0  0  0  0  0  0  0  0  0  0  0  0
   52.4580    8.7400   -1.6010 C   0  0  0  0  0  0  0  0  0  0  0  0
   53.8240    9.1000   -1.8230 O   0  0  0  0  0  0  0  0  0  0  0  0
   50.3900    6.8230   -1.3430 H   0  0  0  0  0  0  0  0  0  0  0  0
   49.8690    8.0090   -2.5120 H   0  0  0  0  0  0  0  0  0  0  0  0
   50.2200    6.3770   -3.0380 H   0  0  0  0  0  0  0  0  0  0  0  0
   53.7630    7.5300   -3.5920 H   0  0  0  0  0  0  0  0  0  0  0  0
   51.5910    5.5100   -4.3230 H   0  0  0  0  0  0  0  0  0  0  0  0
   53.2870    5.1300   -4.0550 H   0  0  0  0  0  0  0  0  0  0  0  0
   52.2990    8.4850   -0.5580 H   0  0  0  0  0  0  0  0  0  0  0  0
   51.8440    9.6220   -1.7850 H   0  0  0  0  0  0  0  0  0  0  0  0
   53.9370    9.3530   -2.7320 H   0  0  0  0  0  0  0  0  0  0  0  0
  1  2  1  6  0  0  0
  1  3  2  0  0  0  0
  1  4  1  0  0  0  0
  1 12  1  0  0  0  0
  4  5  1  0  0  0  0
  5  6  1  0  0  0  0
  5  7  2  0  0  0  0
  5  8  2  0  0  0  0
  9 13  1  0  0  0  0
  9 16  1  0  0  0  0
  9 17  1  0  0  0  0
  9 18  1  0  0  0  0
 10 11  1  0  0  0  0
 10 13  2  0  0  0  0
 10 19  1  0  0  0  0
 11 12  1  0  0  0  0
 11 20  1  0  0  0  0
 11 21  1  0  0  0  0
 13 14  1  0  0  0  0
 14 15  1  0  0  0  0
 14 22  1  0  0  0  0
 14 23  1  0  0  0  0
 15 24  1  0  0  0  0
M  CHG  3   2  -1   5   1   6  -1
M  END
>  <COMPND>
    title: molecule 1

$$$$
8PPZ_ligand0.pdb
 OpenBabel06042612053D

 64 68  0  0  1  0  0  0  0  0999 V2000
   -9.0540    7.2750   31.9030 Cl  0  0  0  0  0  0  0  0  0  0  0  0
   -7.7030    7.5980   30.8830 C   0  0  0  0  0  0  0  0  0  0  0  0
   -7.1690    8.8650   30.8330 C   0  0  0  0  0  0  0  0  0  0  0  0
   -6.0750    9.1550   30.0160 C   0  0  0  0  0  0  0  0  0  0  0  0
   -5.5270    8.1910   29.2230 C   0  0  0  0  0  0  0  0  0  0  0  0
   -6.0670    6.9080   29.2420 C   0  0  0  0  0  0  0  0  0  0  0  0
   -7.1420    6.5960   30.0950 C   0  0  0  0  0  0  0  0  0  0  0  0
   -7.7580    5.3590   30.1290 C   0  0  0  0  0  0  0  0  0  0  0  0
   -7.3020    4.1300   29.4440 C   0  0  0  0  0  0  0  0  0  0  0  0
   -8.0560    2.7470   29.4900 C   0  0  1  0  0  0  0  0  0  0  0  0
   -9.2610    2.8490   30.2780 C   0  0  0  0  0  0  0  0  0  0  0  0
   -9.8120    1.5460   30.6640 N   0  0  0  0  0  0  0  0  0  0  0  0
   -9.9840    1.2230   32.1330 C   0  0  0  0  0  0  0  0  0  0  0  0
  -10.6750    2.3990   32.7830 C   0  0  0  0  0  0  0  0  0  0  0  0
  -11.9500    2.6950   32.3660 N   0  0  0  0  0  0  0  0  0  0  0  0
  -12.5340    3.8180   32.9200 C   0  0  0  0  0  0  0  0  0  0  0  0
  -11.8770    4.6280   33.8760 C   0  0  0  0  0  0  0  0  0  0  0  0
  -10.5810    4.3330   34.2320 C   0  0  0  0  0  0  0  0  0  0  0  0
   -9.9670    3.1890   33.7010 C   0  0  0  0  0  0  0  0  0  0  0  0
  -10.2220    0.6250   29.7570 C   0  0  0  0  0  0  0  0  0  0  0  0
  -10.7110   -0.4450   30.1930 O   0  0  0  0  0  0  0  0  0  0  0  0
  -10.2300    0.7910   28.3350 C   0  0  2  0  0  0  0  0  0  0  0  0
   -9.4400   -0.2670   27.5830 C   0  0  0  0  0  0  0  0  0  0  0  0
   -7.8700   -0.1180   27.8390 C   0  0  0  0  0  0  0  0  0  0  0  0
   -7.4520    1.3380   27.4820 C   0  0  0  0  0  0  0  0  0  0  0  0
   -8.3780    2.4340   28.0260 C   0  0  1  0  0  0  0  0  0  0  0  0
   -9.7280    1.9700   27.6530 N   0  0  0  0  0  0  0  0  0  0  0  0
  -10.6160    2.9160   26.6510 S   0  0  0  0  0  0  0  0  0  0  0  0
   -9.7200    3.1670   25.4490 O   0  0  0  0  0  0  0  0  0  0  0  0
  -11.9930    2.3170   26.5320 O   0  0  0  0  0  0  0  0  0  0  0  0
  -10.8270    4.5070   27.4180 C   0  0  0  0  0  0  0  0  0  0  0  0
  -11.8160    4.6420   28.3720 C   0  0  0  0  0  0  0  0  0  0  0  0
  -12.0100    5.8470   29.0240 C   0  0  0  0  0  0  0  0  0  0  0  0
  -13.2310    5.9670   30.1680 Cl  0  0  0  0  0  0  0  0  0  0  0  0
  -11.1960    6.9270   28.7580 C   0  0  0  0  0  0  0  0  0  0  0  0
  -10.1980    6.7950   27.7850 C   0  0  0  0  0  0  0  0  0  0  0  0
   -9.2260    8.1250   27.3820 Cl  0  0  0  0  0  0  0  0  0  0  0  0
  -10.0060    5.5860   27.1190 C   0  0  0  0  0  0  0  0  0  0  0  0
   -7.5950    9.6470   31.4440 H   0  0  0  0  0  0  0  0  0  0  0  0
   -5.6670   10.1540   30.0020 H   0  0  0  0  0  0  0  0  0  0  0  0
   -4.6910    8.4230   28.5790 H   0  0  0  0  0  0  0  0  0  0  0  0
   -5.6390    6.1580   28.5970 H   0  0  0  0  0  0  0  0  0  0  0  0
   -8.6770    5.2680   30.6680 H   0  0  0  0  0  0  0  0  0  0  0  0
   -6.3900    4.1360   28.8660 H   0  0  0  0  0  0  0  0  0  0  0  0
   -7.3830    2.0100   29.9310 H   0  0  0  0  0  0  0  0  0  0  0  0
  -10.0250    3.4880   29.8460 H   0  0  0  0  0  0  0  0  0  0  0  0
   -8.9630    3.3130   31.2130 H   0  0  0  0  0  0  0  0  0  0  0  0
   -8.9980    1.0630   32.5720 H   0  0  0  0  0  0  0  0  0  0  0  0
  -10.5780    0.3420   32.3750 H   0  0  0  0  0  0  0  0  0  0  0  0
  -13.5280    4.0310   32.5800 H   0  0  0  0  0  0  0  0  0  0  0  0
  -12.3740    5.4940   34.2870 H   0  0  0  0  0  0  0  0  0  0  0  0
  -10.0420    4.9650   34.9190 H   0  0  0  0  0  0  0  0  0  0  0  0
   -8.9530    2.9430   33.9800 H   0  0  0  0  0  0  0  0  0  0  0  0
  -11.2730    0.6430   28.0600 H   0  0  0  0  0  0  0  0  0  0  0  0
   -9.6480   -0.2080   26.5130 H   0  0  0  0  0  0  0  0  0  0  0  0
   -9.7550   -1.2690   27.8780 H   0  0  0  0  0  0  0  0  0  0  0  0
   -7.2960   -0.8380   27.2760 H   0  0  0  0  0  0  0  0  0  0  0  0
   -7.6490   -0.3130   28.8880 H   0  0  0  0  0  0  0  0  0  0  0  0
   -7.4600    1.4050   26.3940 H   0  0  0  0  0  0  0  0  0  0  0  0
   -6.4180    1.5220   27.7730 H   0  0  0  0  0  0  0  0  0  0  0  0
   -8.1730    3.3210   27.4280 H   0  0  0  0  0  0  0  0  0  0  0  0
  -12.4780    3.8240   28.5730 H   0  0  0  0  0  0  0  0  0  0  0  0
  -11.3540    7.8620   29.2700 H   0  0  0  0  0  0  0  0  0  0  0  0
   -9.2240    5.4930   26.3810 H   0  0  0  0  0  0  0  0  0  0  0  0
  1  2  1  0  0  0  0
  2  3  2  0  0  0  0
  2  7  1  0  0  0  0
  3  4  1  0  0  0  0
  3 39  1  0  0  0  0
  4  5  2  0  0  0  0
  4 40  1  0  0  0  0
  5  6  1  0  0  0  0
  5 41  1  0  0  0  0
  6  7  2  0  0  0  0
  6 42  1  0  0  0  0
  7  8  1  0  0  0  0
  8  9  2  0  0  0  0
  8 43  1  0  0  0  0
  9 10  1  0  0  0  0
  9 44  1  0  0  0  0
 10 11  1  0  0  0  0
 10 26  1  0  0  0  0
 10 45  1  1  0  0  0
 11 12  1  0  0  0  0
 11 46  1  0  0  0  0
 11 47  1  0  0  0  0
 12 13  1  0  0  0  0
 12 20  1  0  0  0  0
 13 14  1  0  0  0  0
 13 48  1  0  0  0  0
 13 49  1  0  0  0  0
 14 15  2  0  0  0  0
 14 19  1  0  0  0  0
 15 16  1  0  0  0  0
 16 17  2  0  0  0  0
 16 50  1  0  0  0  0
 17 18  1  0  0  0  0
 17 51  1  0  0  0  0
 18 19  2  0  0  0  0
 18 52  1  0  0  0  0
 19 53  1  0  0  0  0
 20 21  2  0  0  0  0
 20 22  1  0  0  0  0
 22 23  1  0  0  0  0
 22 27  1  0  0  0  0
 22 54  1  6  0  0  0
 23 24  1  0  0  0  0
 23 55  1  0  0  0  0
 23 56  1  0  0  0  0
 24 25  1  0  0  0  0
 24 57  1  0  0  0  0
 24 58  1  0  0  0  0
 25 26  1  0  0  0  0
 25 59  1  0  0  0  0
 25 60  1  0  0  0  0
 26 27  1  0  0  0  0
 26 61  1  6  0  0  0
 27 28  1  0  0  0  0
 28 29  2  0  0  0  0
 28 30  2  0  0  0  0
 28 31  1  0  0  0  0
 31 32  2  0  0  0  0
 31 38  1  0  0  0  0
 32 33  1  0  0  0  0
 32 62  1  0  0  0  0
 33 34  1  0  0  0  0
 33 35  2  0  0  0  0
 35 36  1  0  0  0  0
 35 63  1  0  0  0  0
 36 37  1  0  0  0  0
 36 38  2  0  0  0  0
 38 64  1  0  0  0  0
M  END
>  <COMPND>
    title: molecule 1

$$$$
8TBF_ligand0.pdb
 OpenBabel06042612053D

123132  0  0  1  0  0  0  0  0999 V2000
   27.8560  -29.4850  -13.1050 C   0  0  0  0  0  0  0  0  0  0  0  0
   22.2840  -27.0960   -5.9430 C   0  0  1  0  0  0  0  0  0  0  0  0
   21.9720  -26.6020   -4.5530 C   0  0  0  0  0  0  0  0  0  0  0  0
   22.7360  -28.7760   -4.2840 C   0  0  0  0  0  0  0  0  0  0  0  0
   27.1880  -26.3730   -9.4200 C   0  0  0  0  0  0  0  0  0  0  0  0
   26.7440  -25.1530  -10.1740 C   0  0  0  0  0  0  0  0  0  0  0  0
   26.6000  -23.6100  -11.7810 C   0  0  0  0  0  0  0  0  0  0  0  0
   25.6830  -23.0980  -10.9360 C   0  0  0  0  0  0  0  0  0  0  0  0
   26.8720  -23.1330  -13.1440 C   0  0  0  0  0  0  0  0  0  0  0  0
   27.4640  -23.9680  -14.0860 C   0  0  0  0  0  0  0  0  0  0  0  0
   27.6430  -23.5060  -15.3880 C   0  0  0  0  0  0  0  0  0  0  0  0
   27.0880  -28.2280  -12.6660 C   0  0  1  0  0  0  0  0  0  0  0  0
   27.2160  -22.2050  -15.7260 C   0  0  0  0  0  0  0  0  0  0  0  0
   26.6230  -21.3590  -14.7910 C   0  0  0  0  0  0  0  0  0  0  0  0
   26.4650  -21.8450  -13.5120 C   0  0  0  0  0  0  0  0  0  0  0  0
   27.3050  -20.7330  -17.7700 C   0  0  0  0  0  0  0  0  0  0  0  0
   28.4050  -19.7620  -17.4250 C   0  0  0  0  0  0  0  0  0  0  0  0
   28.1130  -23.1440  -17.5580 C   0  0  0  0  0  0  0  0  0  0  0  0
   28.6170  -23.2860  -18.9290 C   0  0  0  0  0  0  0  0  0  0  0  0
   27.7790  -23.3200  -20.0830 C   0  0  0  0  0  0  0  0  0  0  0  0
   26.2700  -23.1570  -19.9980 C   0  0  2  0  0  0  0  0  0  0  0  0
   24.6390  -21.4110  -20.0920 C   0  0  0  0  0  0  0  0  0  0  0  0
   27.2650  -30.5290  -10.9210 C   0  0  0  0  0  0  0  0  0  0  0  0
   25.5520  -24.2200  -20.8050 C   0  0  0  0  0  0  0  0  0  0  0  0
   29.6380  -23.6370  -21.4480 C   0  0  0  0  0  0  0  0  0  0  0  0
   30.5030  -23.6560  -20.3610 C   0  0  0  0  0  0  0  0  0  0  0  0
   32.7520  -23.9710  -19.3850 C   0  0  0  0  0  0  0  0  0  0  0  0
   34.0210  -24.7270  -19.7090 C   0  0  0  0  0  0  0  0  0  0  0  0
   35.8620  -24.9580  -21.2310 C   0  0  0  0  0  0  0  0  0  0  0  0
   37.1230  -24.5840  -20.5260 C   0  0  0  0  0  0  0  0  0  0  0  0
   36.9470  -24.2470  -21.9680 C   0  0  0  0  0  0  0  0  0  0  0  0
   33.7350  -24.3190  -22.0450 C   0  0  0  0  0  0  0  0  0  0  0  0
   32.5150  -23.4660  -21.8060 C   0  0  0  0  0  0  0  0  0  0  0  0
   28.3880  -30.2640  -11.9030 C   0  0  0  0  0  0  0  0  0  0  0  0
   29.9880  -23.4680  -19.0920 C   0  0  0  0  0  0  0  0  0  0  0  0
   28.2170  -24.0930  -16.5550 C   0  0  0  0  0  0  0  0  0  0  0  0
   28.8300  -25.4620  -16.6500 C   0  0  0  0  0  0  0  0  0  0  0  0
   27.8930  -26.6330  -17.0080 C   0  0  0  0  0  0  0  0  0  0  0  0
   27.3190  -26.4240  -18.4090 C   0  0  0  0  0  0  0  0  0  0  0  0
   28.7090  -27.9330  -17.0010 C   0  0  0  0  0  0  0  0  0  0  0  0
   26.7330  -26.7510  -16.0280 C   0  0  0  0  0  0  0  0  0  0  0  0
   26.3970  -27.6330  -13.8630 C   0  0  0  0  0  0  0  0  0  0  0  0
   26.5440  -28.7360   -9.3340 C   0  0  0  0  0  0  0  0  0  0  0  0
   26.0090  -27.3340   -9.2060 C   0  0  1  0  0  0  0  0  0  0  0  0
   24.1320  -27.4460   -7.6630 C   0  0  0  0  0  0  0  0  0  0  0  0
   23.7200  -27.4590   -6.2300 C   0  0  2  0  0  0  0  0  0  0  0  0
   22.7410  -28.5190   -5.7740 C   0  0  2  0  0  0  0  0  0  0  0  0
   26.0530  -28.5350  -11.6840 N   0  0  0  0  0  0  0  0  0  0  0  0
   26.6060  -29.2570  -10.6000 N   0  0  0  0  0  0  0  0  0  0  0  0
   25.4140  -27.1500   -7.8970 N   0  0  0  0  0  0  0  0  0  0  0  0
   27.2300  -24.7630  -11.3140 N   0  0  0  0  0  0  0  0  0  0  0  0
   27.5000  -21.9950  -17.0570 N   0  0  0  0  0  0  0  0  0  0  0  0
   28.3070  -23.4620  -21.3140 N   0  0  0  0  0  0  0  0  0  0  0  0
   31.8580  -23.7950  -20.5360 N   0  0  0  0  0  0  0  0  0  0  0  0
   34.6700  -24.2060  -20.9190 N   0  3  1  0  0  0  0  0  0  0  0  0
   26.9520  -29.3660   -8.3650 O   0  0  0  0  0  0  0  0  0  0  0  0
   23.3430  -27.7090   -8.5670 O   0  0  0  0  0  0  0  0  0  0  0  0
   22.7420  -27.4680   -3.7120 O   0  0  0  0  0  0  0  0  0  0  0  0
   25.9350  -21.8610  -20.5010 O   0  0  0  0  0  0  0  0  0  0  0  0
   27.2800  -27.1540  -14.7360 O   0  0  0  0  0  0  0  0  0  0  0  0
   25.1990  -27.6440  -14.0330 O   0  0  0  0  0  0  0  0  0  0  0  0
   25.4860  -24.1270   -9.5860 S   0  0  0  0  0  0  0  0  0  0  0  0
   28.6850  -29.2210  -13.7620 H   0  0  0  0  0  0  0  0  0  0  0  0
   27.2000  -30.1400  -13.6780 H   0  0  0  0  0  0  0  0  0  0  0  0
   21.5960  -26.8480   -6.7470 H   0  0  0  0  0  0  0  0  0  0  0  0
   20.9070  -26.7080   -4.3500 H   0  0  0  0  0  0  0  0  0  0  0  0
   22.2700  -25.5640   -4.4110 H   0  0  0  0  0  0  0  0  0  0  0  0
   23.6360  -29.3110   -4.0030 H   0  0  0  0  0  0  0  0  0  0  0  0
   21.8490  -29.3350   -3.9870 H   0  0  0  0  0  0  0  0  0  0  0  0
   27.6120  -26.0610   -8.4690 H   0  0  0  0  0  0  0  0  0  0  0  0
   28.0090  -26.8270   -9.9780 H   0  0  0  0  0  0  0  0  0  0  0  0
   25.0440  -22.2420  -11.0450 H   0  0  0  0  0  0  0  0  0  0  0  0
   27.8050  -24.9530  -13.8180 H   0  0  0  0  0  0  0  0  0  0  0  0
   27.7780  -27.5020  -12.2390 H   0  0  0  0  0  0  0  0  0  0  0  0
   26.3020  -20.3630  -15.0570 H   0  0  0  0  0  0  0  0  0  0  0  0
   26.0150  -21.1950  -12.7800 H   0  0  0  0  0  0  0  0  0  0  0  0
   27.3310  -20.8950  -18.8410 H   0  0  0  0  0  0  0  0  0  0  0  0
   26.3250  -20.3240  -17.5230 H   0  0  0  0  0  0  0  0  0  0  0  0
   28.3000  -18.8340  -17.9870 H   0  0  0  0  0  0  0  0  0  0  0  0
   28.4000  -19.5090  -16.3640 H   0  0  0  0  0  0  0  0  0  0  0  0
   29.3770  -20.1890  -17.6630 H   0  0  0  0  0  0  0  0  0  0  0  0
   25.9480  -23.2460  -18.9610 H   0  0  0  0  0  0  0  0  0  0  0  0
   24.4660  -20.4090  -20.4820 H   0  0  0  0  0  0  0  0  0  0  0  0
   23.8370  -22.0490  -20.4600 H   0  0  0  0  0  0  0  0  0  0  0  0
   24.5710  -21.3520  -19.0060 H   0  0  0  0  0  0  0  0  0  0  0  0
   27.6600  -31.0330  -10.0400 H   0  0  0  0  0  0  0  0  0  0  0  0
   26.5260  -31.2010  -11.3610 H   0  0  0  0  0  0  0  0  0  0  0  0
   24.4880  -24.1730  -20.6380 H   0  0  0  0  0  0  0  0  0  0  0  0
   25.7240  -24.0980  -21.8750 H   0  0  0  0  0  0  0  0  0  0  0  0
   25.8840  -25.2200  -20.5360 H   0  0  0  0  0  0  0  0  0  0  0  0
   29.9410  -23.7850  -22.4710 H   0  0  0  0  0  0  0  0  0  0  0  0
   32.9960  -22.9880  -18.9810 H   0  0  0  0  0  0  0  0  0  0  0  0
   32.2670  -24.5380  -18.5910 H   0  0  0  0  0  0  0  0  0  0  0  0
   33.7740  -25.7740  -19.8690 H   0  0  0  0  0  0  0  0  0  0  0  0
   34.7060  -24.6870  -18.8620 H   0  0  0  0  0  0  0  0  0  0  0  0
   35.6840  -26.0130  -21.4400 H   0  0  0  0  0  0  0  0  0  0  0  0
   37.8130  -25.3870  -20.2790 H   0  0  0  0  0  0  0  0  0  0  0  0
   37.0890  -23.7650  -19.8110 H   0  0  0  0  0  0  0  0  0  0  0  0
   36.7970  -23.2020  -22.2270 H   0  0  0  0  0  0  0  0  0  0  0  0
   37.5240  -24.8220  -22.6890 H   0  0  0  0  0  0  0  0  0  0  0  0
   34.2240  -23.9880  -22.9620 H   0  0  0  0  0  0  0  0  0  0  0  0
   33.4420  -25.3590  -22.2010 H   0  0  0  0  0  0  0  0  0  0  0  0
   31.8830  -23.5700  -22.6820 H   0  0  0  0  0  0  0  0  0  0  0  0
   32.7980  -22.4150  -21.7660 H   0  0  0  0  0  0  0  0  0  0  0  0
   29.1820  -29.6970  -11.4130 H   0  0  0  0  0  0  0  0  0  0  0  0
   28.8290  -31.1880  -12.2550 H   0  0  0  0  0  0  0  0  0  0  0  0
   30.6030  -23.4160  -18.2070 H   0  0  0  0  0  0  0  0  0  0  0  0
   29.2940  -25.6900  -15.6920 H   0  0  0  0  0  0  0  0  0  0  0  0
   29.6660  -25.4540  -17.3480 H   0  0  0  0  0  0  0  0  0  0  0  0
   26.7470  -27.2930  -18.7360 H   0  0  0  0  0  0  0  0  0  0  0  0
   26.6420  -25.5720  -18.4220 H   0  0  0  0  0  0  0  0  0  0  0  0
   28.1010  -26.2500  -19.1490 H   0  0  0  0  0  0  0  0  0  0  0  0
   28.0600  -28.8050  -17.0820 H   0  0  0  0  0  0  0  0  0  0  0  0
   29.4070  -27.9620  -17.8350 H   0  0  0  0  0  0  0  0  0  0  0  0
   29.2940  -28.0510  -16.0880 H   0  0  0  0  0  0  0  0  0  0  0  0
   26.0670  -27.5360  -16.3810 H   0  0  0  0  0  0  0  0  0  0  0  0
   26.1580  -25.8280  -15.9480 H   0  0  0  0  0  0  0  0  0  0  0  0
   25.2420  -27.1170   -9.9490 H   0  0  0  0  0  0  0  0  0  0  0  0
   24.4710  -27.1210   -5.5180 H   0  0  0  0  0  0  0  0  0  0  0  0
   22.4340  -29.2920   -6.4680 H   0  0  0  0  0  0  0  0  0  0  0  0
   25.6290  -27.6740  -11.3390 H   0  0  0  0  0  0  0  0  0  0  0  0
   26.0290  -26.9590   -7.1150 H   0  0  0  0  0  0  0  0  0  0  0  0
   34.9100  -23.2300  -20.7790 H   0  0  0  0  0  0  0  0  0  0  0  0
  1 12  1  0  0  0  0
  1 34  1  0  0  0  0
  1 63  1  0  0  0  0
  1 64  1  0  0  0  0
  2  3  1  0  0  0  0
  2 46  1  0  0  0  0
  2 47  1  0  0  0  0
  2 65  1  6  0  0  0
  3 58  1  0  0  0  0
  3 66  1  0  0  0  0
  3 67  1  0  0  0  0
  4 47  1  0  0  0  0
  4 58  1  0  0  0  0
  4 68  1  0  0  0  0
  4 69  1  0  0  0  0
  5  6  1  0  0  0  0
  5 44  1  0  0  0  0
  5 70  1  0  0  0  0
  5 71  1  0  0  0  0
  6 51  2  0  0  0  0
  6 62  1  0  0  0  0
  7  8  2  0  0  0  0
  7  9  1  0  0  0  0
  7 51  1  0  0  0  0
  8 62  1  0  0  0  0
  8 72  1  0  0  0  0
  9 10  1  0  0  0  0
  9 15  2  0  0  0  0
 10 11  2  0  0  0  0
 10 73  1  0  0  0  0
 11 13  1  0  0  0  0
 11 36  1  0  0  0  0
 12 42  1  0  0  0  0
 12 48  1  0  0  0  0
 12 74  1  1  0  0  0
 13 14  2  0  0  0  0
 13 52  1  0  0  0  0
 14 15  1  0  0  0  0
 14 75  1  0  0  0  0
 15 76  1  0  0  0  0
 16 17  1  0  0  0  0
 16 52  1  0  0  0  0
 16 77  1  0  0  0  0
 16 78  1  0  0  0  0
 17 79  1  0  0  0  0
 17 80  1  0  0  0  0
 17 81  1  0  0  0  0
 18 19  1  0  0  0  0
 18 36  2  0  0  0  0
 18 52  1  0  0  0  0
 19 20  2  0  0  0  0
 19 35  1  0  0  0  0
 20 21  1  0  0  0  0
 20 53  1  0  0  0  0
 21 24  1  0  0  0  0
 21 59  1  0  0  0  0
 21 82  1  1  0  0  0
 22 59  1  0  0  0  0
 22 83  1  0  0  0  0
 22 84  1  0  0  0  0
 22 85  1  0  0  0  0
 23 34  1  0  0  0  0
 23 49  1  0  0  0  0
 23 86  1  0  0  0  0
 23 87  1  0  0  0  0
 24 88  1  0  0  0  0
 24 89  1  0  0  0  0
 24 90  1  0  0  0  0
 25 26  1  0  0  0  0
 25 53  2  0  0  0  0
 25 91  1  0  0  0  0
 26 35  2  0  0  0  0
 26 54  1  0  0  0  0
 27 28  1  0  0  0  0
 27 54  1  0  0  0  0
 27 92  1  0  0  0  0
 27 93  1  0  0  0  0
 28 55  1  0  0  0  0
 28 94  1  0  0  0  0
 28 95  1  0  0  0  0
 29 30  1  0  0  0  0
 29 31  1  0  0  0  0
 29 55  1  0  0  0  0
 29 96  1  0  0  0  0
 30 31  1  0  0  0  0
 30 97  1  0  0  0  0
 30 98  1  0  0  0  0
 31 99  1  0  0  0  0
 31100  1  0  0  0  0
 32 33  1  0  0  0  0
 32 55  1  0  0  0  0
 32101  1  0  0  0  0
 32102  1  0  0  0  0
 33 54  1  0  0  0  0
 33103  1  0  0  0  0
 33104  1  0  0  0  0
 34105  1  0  0  0  0
 34106  1  0  0  0  0
 35107  1  0  0  0  0
 36 37  1  0  0  0  0
 37 38  1  0  0  0  0
 37108  1  0  0  0  0
 37109  1  0  0  0  0
 38 39  1  0  0  0  0
 38 40  1  0  0  0  0
 38 41  1  0  0  0  0
 39110  1  0  0  0  0
 39111  1  0  0  0  0
 39112  1  0  0  0  0
 40113  1  0  0  0  0
 40114  1  0  0  0  0
 40115  1  0  0  0  0
 41 60  1  0  0  0  0
 41116  1  0  0  0  0
 41117  1  0  0  0  0
 42 60  1  0  0  0  0
 42 61  2  0  0  0  0
 43 44  1  0  0  0  0
 43 49  1  0  0  0  0
 43 56  2  0  0  0  0
 44 50  1  0  0  0  0
 44118  1  6  0  0  0
 45 46  1  0  0  0  0
 45 50  1  0  0  0  0
 45 57  2  0  0  0  0
 46 47  1  0  0  0  0
 46119  1  1  0  0  0
 47120  1  6  0  0  0
 48 49  1  0  0  0  0
 48121  1  0  0  0  0
 50122  1  0  0  0  0
 55123  1  1  0  0  0
M  CHG  1  55   1
M  END
>  <COMPND>
    title: molecule 1

$$$$
8TBG_ligand0.pdb
 OpenBabel06042612053D

123132  0  0  1  0  0  0  0  0999 V2000
  -27.5930  -28.4770   12.9850 C   0  0  0  0  0  0  0  0  0  0  0  0
  -21.8860  -26.1580    5.8440 C   0  0  1  0  0  0  0  0  0  0  0  0
  -21.5500  -25.7250    4.4370 C   0  0  0  0  0  0  0  0  0  0  0  0
  -22.2840  -27.9140    4.2440 C   0  0  0  0  0  0  0  0  0  0  0  0
  -26.8130  -25.3760    9.2550 C   0  0  0  0  0  0  0  0  0  0  0  0
  -26.3240  -24.1700    9.9880 C   0  0  0  0  0  0  0  0  0  0  0  0
  -26.1530  -22.6180   11.5570 C   0  0  0  0  0  0  0  0  0  0  0  0
  -25.1760  -22.1760   10.7290 C   0  0  0  0  0  0  0  0  0  0  0  0
  -26.4750  -22.0840   12.8860 C   0  0  0  0  0  0  0  0  0  0  0  0
  -27.1180  -22.8770   13.8290 C   0  0  0  0  0  0  0  0  0  0  0  0
  -27.3560  -22.3670   15.1010 C   0  0  0  0  0  0  0  0  0  0  0  0
  -26.8600  -27.2110   12.5190 C   0  0  1  0  0  0  0  0  0  0  0  0
  -26.9360  -21.0580   15.4090 C   0  0  0  0  0  0  0  0  0  0  0  0
  -26.2910  -20.2580   14.4740 C   0  0  0  0  0  0  0  0  0  0  0  0
  -26.0620  -20.7960   13.2240 C   0  0  0  0  0  0  0  0  0  0  0  0
  -27.0750  -19.5140   17.4000 C   0  0  0  0  0  0  0  0  0  0  0  0
  -28.1510  -18.5250   17.0400 C   0  0  0  0  0  0  0  0  0  0  0  0
  -27.9270  -21.9210   17.2420 C   0  0  0  0  0  0  0  0  0  0  0  0
  -28.4910  -22.0010   18.5940 C   0  0  0  0  0  0  0  0  0  0  0  0
  -27.7180  -21.9580   19.7860 C   0  0  0  0  0  0  0  0  0  0  0  0
  -26.2090  -21.8330   19.7780 C   0  0  2  0  0  0  0  0  0  0  0  0
  -24.4530  -20.2340   19.8520 C   0  0  0  0  0  0  0  0  0  0  0  0
  -27.0070  -29.5420   10.8220 C   0  0  0  0  0  0  0  0  0  0  0  0
  -25.5770  -22.8620   20.6930 C   0  0  0  0  0  0  0  0  0  0  0  0
  -29.6190  -22.2070   21.0870 C   0  0  0  0  0  0  0  0  0  0  0  0
  -30.4350  -22.2510   19.9670 C   0  0  0  0  0  0  0  0  0  0  0  0
  -32.4790  -22.1240   21.3430 C   0  0  0  0  0  0  0  0  0  0  0  0
  -33.9560  -21.9240   21.1170 C   0  0  0  0  0  0  0  0  0  0  0  0
  -35.9570  -22.9780   20.3830 C   0  0  0  0  0  0  0  0  0  0  0  0
  -36.7310  -24.2270   20.1240 C   0  0  0  0  0  0  0  0  0  0  0  0
  -36.6980  -23.6410   21.4950 C   0  0  0  0  0  0  0  0  0  0  0  0
  -33.9670  -23.0620   19.0480 C   0  0  0  0  0  0  0  0  0  0  0  0
  -32.4720  -23.2580   19.0850 C   0  0  0  0  0  0  0  0  0  0  0  0
  -28.1270  -29.2830   11.8080 C   0  0  0  0  0  0  0  0  0  0  0  0
  -29.8640  -22.1620   18.7090 C   0  0  0  0  0  0  0  0  0  0  0  0
  -27.9860  -22.9080   16.2630 C   0  0  0  0  0  0  0  0  0  0  0  0
  -28.6240  -24.2630   16.3590 C   0  0  0  0  0  0  0  0  0  0  0  0
  -27.7200  -25.4220   16.7980 C   0  0  0  0  0  0  0  0  0  0  0  0
  -27.1510  -25.1540   18.1940 C   0  0  0  0  0  0  0  0  0  0  0  0
  -28.5580  -26.7040   16.8400 C   0  0  0  0  0  0  0  0  0  0  0  0
  -26.5590  -25.6130   15.8310 C   0  0  0  0  0  0  0  0  0  0  0  0
  -26.1980  -26.5610   13.7020 C   0  0  0  0  0  0  0  0  0  0  0  0
  -26.2560  -27.7900    9.2080 C   0  0  0  0  0  0  0  0  0  0  0  0
  -25.6850  -26.3960    9.0450 C   0  0  1  0  0  0  0  0  0  0  0  0
  -23.7660  -26.5260    7.5490 C   0  0  0  0  0  0  0  0  0  0  0  0
  -23.3290  -26.5200    6.1240 C   0  0  2  0  0  0  0  0  0  0  0  0
  -22.3360  -27.5880    5.7200 C   0  0  2  0  0  0  0  0  0  0  0  0
  -25.8140  -27.5150   11.5420 N   0  0  0  0  0  0  0  0  0  0  0  0
  -26.3550  -28.2720   10.4810 N   0  0  0  0  0  0  0  0  0  0  0  0
  -25.0530  -26.2230    7.7480 N   0  0  0  0  0  0  0  0  0  0  0  0
  -26.8360  -23.7510   11.1130 N   0  0  0  0  0  0  0  0  0  0  0  0
  -27.2860  -20.7990   16.7230 N   0  0  0  0  0  0  0  0  0  0  0  0
  -28.2900  -22.0620   20.9970 N   0  0  0  0  0  0  0  0  0  0  0  0
  -31.7710  -22.4580   20.1010 N   0  0  0  0  0  0  0  0  0  0  0  0
  -34.5170  -23.0760   20.4070 N   0  3  1  0  0  0  0  0  0  0  0  0
  -26.6340  -28.4670    8.2600 O   0  0  0  0  0  0  0  0  0  0  0  0
  -22.9940  -26.8010    8.4640 O   0  0  0  0  0  0  0  0  0  0  0  0
  -22.2930  -26.6400    3.6210 O   0  0  0  0  0  0  0  0  0  0  0  0
  -25.8020  -20.5320   20.1940 O   0  0  0  0  0  0  0  0  0  0  0  0
  -27.0970  -26.0740   14.5530 O   0  0  0  0  0  0  0  0  0  0  0  0
  -25.0100  -26.5390   13.8920 O   0  0  0  0  0  0  0  0  0  0  0  0
  -24.9930  -23.2390    9.4060 S   0  0  0  0  0  0  0  0  0  0  0  0
  -28.4200  -28.2220   13.6490 H   0  0  0  0  0  0  0  0  0  0  0  0
  -26.9170  -29.1090   13.5640 H   0  0  0  0  0  0  0  0  0  0  0  0
  -21.2200  -25.8680    6.6530 H   0  0  0  0  0  0  0  0  0  0  0  0
  -20.4800  -25.8280    4.2600 H   0  0  0  0  0  0  0  0  0  0  0  0
  -21.8530  -24.6960    4.2450 H   0  0  0  0  0  0  0  0  0  0  0  0
  -23.1620  -28.4850    3.9590 H   0  0  0  0  0  0  0  0  0  0  0  0
  -21.3760  -28.4640    3.9980 H   0  0  0  0  0  0  0  0  0  0  0  0
  -27.2150  -25.0490    8.3020 H   0  0  0  0  0  0  0  0  0  0  0  0
  -27.6560  -25.7930    9.8100 H   0  0  0  0  0  0  0  0  0  0  0  0
  -24.4980  -21.3500   10.8420 H   0  0  0  0  0  0  0  0  0  0  0  0
  -27.4490  -23.8700   13.5850 H   0  0  0  0  0  0  0  0  0  0  0  0
  -27.5680  -26.5190   12.0680 H   0  0  0  0  0  0  0  0  0  0  0  0
  -25.9710  -19.2570   14.7200 H   0  0  0  0  0  0  0  0  0  0  0  0
  -25.5670  -20.1810   12.4920 H   0  0  0  0  0  0  0  0  0  0  0  0
  -27.1060  -19.6410   18.4730 H   0  0  0  0  0  0  0  0  0  0  0  0
  -26.0860  -19.1300   17.1460 H   0  0  0  0  0  0  0  0  0  0  0  0
  -27.9760  -17.5660   17.5270 H   0  0  0  0  0  0  0  0  0  0  0  0
  -28.1930  -18.3490   15.9650 H   0  0  0  0  0  0  0  0  0  0  0  0
  -29.1240  -18.8900   17.3640 H   0  0  0  0  0  0  0  0  0  0  0  0
  -25.8460  -22.0210   18.7680 H   0  0  0  0  0  0  0  0  0  0  0  0
  -24.2090  -19.2270   20.1870 H   0  0  0  0  0  0  0  0  0  0  0  0
  -23.7410  -20.9140   20.3110 H   0  0  0  0  0  0  0  0  0  0  0  0
  -24.3120  -20.2600   18.7720 H   0  0  0  0  0  0  0  0  0  0  0  0
  -27.4070  -30.0620    9.9530 H   0  0  0  0  0  0  0  0  0  0  0  0
  -26.2600  -30.2030   11.2630 H   0  0  0  0  0  0  0  0  0  0  0  0
  -24.5240  -22.9790   20.4890 H   0  0  0  0  0  0  0  0  0  0  0  0
  -25.6780  -22.5930   21.7420 H   0  0  0  0  0  0  0  0  0  0  0  0
  -26.0280  -23.8440   20.5550 H   0  0  0  0  0  0  0  0  0  0  0  0
  -30.0020  -22.3150   22.0910 H   0  0  0  0  0  0  0  0  0  0  0  0
  -32.3260  -22.9380   22.0530 H   0  0  0  0  0  0  0  0  0  0  0  0
  -32.0570  -21.2260   21.7940 H   0  0  0  0  0  0  0  0  0  0  0  0
  -34.1380  -20.9970   20.5700 H   0  0  0  0  0  0  0  0  0  0  0  0
  -34.4460  -21.8140   22.0860 H   0  0  0  0  0  0  0  0  0  0  0  0
  -36.3370  -22.0440   19.9710 H   0  0  0  0  0  0  0  0  0  0  0  0
  -36.1790  -25.1480   19.9620 H   0  0  0  0  0  0  0  0  0  0  0  0
  -37.6600  -24.1390   19.5650 H   0  0  0  0  0  0  0  0  0  0  0  0
  -37.6070  -23.1570   21.8470 H   0  0  0  0  0  0  0  0  0  0  0  0
  -36.1270  -24.1560   22.2620 H   0  0  0  0  0  0  0  0  0  0  0  0
  -34.4230  -23.8470   18.4440 H   0  0  0  0  0  0  0  0  0  0  0  0
  -34.1970  -22.1140   18.5610 H   0  0  0  0  0  0  0  0  0  0  0  0
  -32.1210  -23.1150   18.0690 H   0  0  0  0  0  0  0  0  0  0  0  0
  -32.2660  -24.3030   19.3200 H   0  0  0  0  0  0  0  0  0  0  0  0
  -28.9340  -28.7370   11.3170 H   0  0  0  0  0  0  0  0  0  0  0  0
  -28.5500  -30.2110   12.1750 H   0  0  0  0  0  0  0  0  0  0  0  0
  -30.4390  -22.1600   17.7990 H   0  0  0  0  0  0  0  0  0  0  0  0
  -29.0520  -24.5110   15.3890 H   0  0  0  0  0  0  0  0  0  0  0  0
  -29.4860  -24.2210   17.0230 H   0  0  0  0  0  0  0  0  0  0  0  0
  -26.6070  -26.0230   18.5660 H   0  0  0  0  0  0  0  0  0  0  0  0
  -26.4520  -24.3190   18.1850 H   0  0  0  0  0  0  0  0  0  0  0  0
  -27.9380  -24.9310   18.9150 H   0  0  0  0  0  0  0  0  0  0  0  0
  -27.9270  -27.5800   16.9790 H   0  0  0  0  0  0  0  0  0  0  0  0
  -29.2730  -26.6780   17.6600 H   0  0  0  0  0  0  0  0  0  0  0  0
  -29.1280  -26.8590   15.9230 H   0  0  0  0  0  0  0  0  0  0  0  0
  -25.9100  -26.3920   16.2260 H   0  0  0  0  0  0  0  0  0  0  0  0
  -25.9630  -24.7080   15.7110 H   0  0  0  0  0  0  0  0  0  0  0  0
  -24.9130  -26.1970    9.7870 H   0  0  0  0  0  0  0  0  0  0  0  0
  -24.0660  -26.1950    5.3930 H   0  0  0  0  0  0  0  0  0  0  0  0
  -22.0230  -28.3280    6.4480 H   0  0  0  0  0  0  0  0  0  0  0  0
  -25.4130  -26.6530   11.1750 H   0  0  0  0  0  0  0  0  0  0  0  0
  -25.6460  -26.0400    6.9490 H   0  0  0  0  0  0  0  0  0  0  0  0
  -34.2500  -23.9340   20.8750 H   0  0  0  0  0  0  0  0  0  0  0  0
  1 12  1  0  0  0  0
  1 34  1  0  0  0  0
  1 63  1  0  0  0  0
  1 64  1  0  0  0  0
  2  3  1  0  0  0  0
  2 46  1  0  0  0  0
  2 47  1  0  0  0  0
  2 65  1  1  0  0  0
  3 58  1  0  0  0  0
  3 66  1  0  0  0  0
  3 67  1  0  0  0  0
  4 47  1  0  0  0  0
  4 58  1  0  0  0  0
  4 68  1  0  0  0  0
  4 69  1  0  0  0  0
  5  6  1  0  0  0  0
  5 44  1  0  0  0  0
  5 70  1  0  0  0  0
  5 71  1  0  0  0  0
  6 51  2  0  0  0  0
  6 62  1  0  0  0  0
  7  8  2  0  0  0  0
  7  9  1  0  0  0  0
  7 51  1  0  0  0  0
  8 62  1  0  0  0  0
  8 72  1  0  0  0  0
  9 10  1  0  0  0  0
  9 15  2  0  0  0  0
 10 11  2  0  0  0  0
 10 73  1  0  0  0  0
 11 13  1  0  0  0  0
 11 36  1  0  0  0  0
 12 42  1  0  0  0  0
 12 48  1  0  0  0  0
 12 74  1  6  0  0  0
 13 14  2  0  0  0  0
 13 52  1  0  0  0  0
 14 15  1  0  0  0  0
 14 75  1  0  0  0  0
 15 76  1  0  0  0  0
 16 17  1  0  0  0  0
 16 52  1  0  0  0  0
 16 77  1  0  0  0  0
 16 78  1  0  0  0  0
 17 79  1  0  0  0  0
 17 80  1  0  0  0  0
 17 81  1  0  0  0  0
 18 19  1  0  0  0  0
 18 36  2  0  0  0  0
 18 52  1  0  0  0  0
 19 20  2  0  0  0  0
 19 35  1  0  0  0  0
 20 21  1  0  0  0  0
 20 53  1  0  0  0  0
 21 24  1  0  0  0  0
 21 59  1  0  0  0  0
 21 82  1  6  0  0  0
 22 59  1  0  0  0  0
 22 83  1  0  0  0  0
 22 84  1  0  0  0  0
 22 85  1  0  0  0  0
 23 34  1  0  0  0  0
 23 49  1  0  0  0  0
 23 86  1  0  0  0  0
 23 87  1  0  0  0  0
 24 88  1  0  0  0  0
 24 89  1  0  0  0  0
 24 90  1  0  0  0  0
 25 26  1  0  0  0  0
 25 53  2  0  0  0  0
 25 91  1  0  0  0  0
 26 35  2  0  0  0  0
 26 54  1  0  0  0  0
 27 28  1  0  0  0  0
 27 54  1  0  0  0  0
 27 92  1  0  0  0  0
 27 93  1  0  0  0  0
 28 55  1  0  0  0  0
 28 94  1  0  0  0  0
 28 95  1  0  0  0  0
 29 30  1  0  0  0  0
 29 31  1  0  0  0  0
 29 55  1  0  0  0  0
 29 96  1  0  0  0  0
 30 31  1  0  0  0  0
 30 97  1  0  0  0  0
 30 98  1  0  0  0  0
 31 99  1  0  0  0  0
 31100  1  0  0  0  0
 32 33  1  0  0  0  0
 32 55  1  0  0  0  0
 32101  1  0  0  0  0
 32102  1  0  0  0  0
 33 54  1  0  0  0  0
 33103  1  0  0  0  0
 33104  1  0  0  0  0
 34105  1  0  0  0  0
 34106  1  0  0  0  0
 35107  1  0  0  0  0
 36 37  1  0  0  0  0
 37 38  1  0  0  0  0
 37108  1  0  0  0  0
 37109  1  0  0  0  0
 38 39  1  0  0  0  0
 38 40  1  0  0  0  0
 38 41  1  0  0  0  0
 39110  1  0  0  0  0
 39111  1  0  0  0  0
 39112  1  0  0  0  0
 40113  1  0  0  0  0
 40114  1  0  0  0  0
 40115  1  0  0  0  0
 41 60  1  0  0  0  0
 41116  1  0  0  0  0
 41117  1  0  0  0  0
 42 60  1  0  0  0  0
 42 61  2  0  0  0  0
 43 44  1  0  0  0  0
 43 49  1  0  0  0  0
 43 56  2  0  0  0  0
 44 50  1  0  0  0  0
 44118  1  1  0  0  0
 45 46  1  0  0  0  0
 45 50  1  0  0  0  0
 45 57  2  0  0  0  0
 46 47  1  0  0  0  0
 46119  1  6  0  0  0
 47120  1  1  0  0  0
 48 49  1  0  0  0  0
 48121  1  0  0  0  0
 50122  1  0  0  0  0
 55123  1  1  0  0  0
M  CHG  1  55   1
M  END
>  <COMPND>
    title: molecule 1

$$$$
8TBH_ligand0.pdb
 OpenBabel06042612053D

123132  0  0  1  0  0  0  0  0999 V2000
  -27.5840  -30.1640   12.3880 C   0  0  0  0  0  0  0  0  0  0  0  0
  -22.1880  -27.4730    5.2330 C   0  0  1  0  0  0  0  0  0  0  0  0
  -21.8690  -26.9250    3.8580 C   0  0  0  0  0  0  0  0  0  0  0  0
  -22.7960  -29.0110    3.5050 C   0  0  0  0  0  0  0  0  0  0  0  0
  -27.1490  -26.8130    8.7630 C   0  0  0  0  0  0  0  0  0  0  0  0
  -26.6990  -25.5970    9.5190 C   0  0  0  0  0  0  0  0  0  0  0  0
  -26.4980  -24.1440   11.1720 C   0  0  0  0  0  0  0  0  0  0  0  0
  -25.6880  -23.5280   10.2800 C   0  0  0  0  0  0  0  0  0  0  0  0
  -26.7390  -23.7360   12.5620 C   0  0  0  0  0  0  0  0  0  0  0  0
  -27.3250  -24.6240   13.4620 C   0  0  0  0  0  0  0  0  0  0  0  0
  -27.5170  -24.2160   14.7840 C   0  0  0  0  0  0  0  0  0  0  0  0
  -26.9150  -28.8430   11.9760 C   0  0  1  0  0  0  0  0  0  0  0  0
  -27.1260  -22.9160   15.1660 C   0  0  0  0  0  0  0  0  0  0  0  0
  -26.5400  -22.0240   14.2720 C   0  0  0  0  0  0  0  0  0  0  0  0
  -26.3620  -22.4580   12.9740 C   0  0  0  0  0  0  0  0  0  0  0  0
  -27.1600  -21.5060   17.2270 C   0  0  0  0  0  0  0  0  0  0  0  0
  -28.2690  -20.5280   16.9610 C   0  0  0  0  0  0  0  0  0  0  0  0
  -27.9820  -23.9380   16.9870 C   0  0  0  0  0  0  0  0  0  0  0  0
  -28.5120  -24.1310   18.3440 C   0  0  0  0  0  0  0  0  0  0  0  0
  -27.7130  -24.1460   19.5160 C   0  0  0  0  0  0  0  0  0  0  0  0
  -26.2130  -23.9520   19.4710 C   0  0  2  0  0  0  0  0  0  0  0  0
  -24.5200  -22.3110   19.7520 C   0  0  0  0  0  0  0  0  0  0  0  0
  -27.0330  -31.0720   10.1550 C   0  0  0  0  0  0  0  0  0  0  0  0
  -25.4900  -25.0420   20.2330 C   0  0  0  0  0  0  0  0  0  0  0  0
  -29.5940  -24.5280   20.8350 C   0  0  0  0  0  0  0  0  0  0  0  0
  -30.4390  -24.5490   19.7300 C   0  0  0  0  0  0  0  0  0  0  0  0
  -32.6920  -24.8930   18.7140 C   0  0  0  0  0  0  0  0  0  0  0  0
  -33.9040  -25.7450   19.0050 C   0  0  0  0  0  0  0  0  0  0  0  0
  -35.8210  -25.9920   20.4300 C   0  0  0  0  0  0  0  0  0  0  0  0
  -37.0060  -25.6230   19.6030 C   0  0  0  0  0  0  0  0  0  0  0  0
  -36.9600  -25.2520   21.0460 C   0  0  0  0  0  0  0  0  0  0  0  0
  -33.6920  -25.3690   21.3420 C   0  0  0  0  0  0  0  0  0  0  0  0
  -32.4930  -24.4710   21.1530 C   0  0  0  0  0  0  0  0  0  0  0  0
  -28.1450  -30.8940   11.1710 C   0  0  0  0  0  0  0  0  0  0  0  0
  -29.8830  -24.3270   18.4730 C   0  0  0  0  0  0  0  0  0  0  0  0
  -28.0720  -24.8540   15.9410 C   0  0  0  0  0  0  0  0  0  0  0  0
  -28.6510  -26.2390   15.9940 C   0  0  0  0  0  0  0  0  0  0  0  0
  -27.6480  -27.3630   16.3410 C   0  0  0  0  0  0  0  0  0  0  0  0
  -27.0800  -27.1750   17.7530 C   0  0  0  0  0  0  0  0  0  0  0  0
  -28.3810  -28.7070   16.2880 C   0  0  0  0  0  0  0  0  0  0  0  0
  -26.4930  -27.4100   15.3480 C   0  0  0  0  0  0  0  0  0  0  0  0
  -26.2080  -28.2420   13.1590 C   0  0  0  0  0  0  0  0  0  0  0  0
  -26.4350  -29.1750    8.6290 C   0  0  0  0  0  0  0  0  0  0  0  0
  -25.9510  -27.7410    8.5110 C   0  0  1  0  0  0  0  0  0  0  0  0
  -24.0690  -27.7800    6.9530 C   0  0  0  0  0  0  0  0  0  0  0  0
  -23.6580  -27.6530    5.5190 C   0  0  2  0  0  0  0  0  0  0  0  0
  -22.8350  -28.8120    5.0060 C   0  0  2  0  0  0  0  0  0  0  0  0
  -25.8700  -29.0570   10.9710 N   0  0  0  0  0  0  0  0  0  0  0  0
  -26.4240  -29.7640    9.8730 N   0  0  0  0  0  0  0  0  0  0  0  0
  -25.3470  -27.4870    7.2080 N   0  0  0  0  0  0  0  0  0  0  0  0
  -27.1120  -25.3070   10.7210 N   0  0  0  0  0  0  0  0  0  0  0  0
  -27.4020  -22.7580   16.5130 N   0  0  0  0  0  0  0  0  0  0  0  0
  -28.2660  -24.3300   20.7320 N   0  0  0  0  0  0  0  0  0  0  0  0
  -31.8110  -24.7100   19.8740 N   0  0  0  0  0  0  0  0  0  0  0  0
  -34.6020  -25.2500   20.1980 N   0  3  1  0  0  0  0  0  0  0  0  0
  -26.9020  -29.7840    7.6780 O   0  0  0  0  0  0  0  0  0  0  0  0
  -23.2770  -28.1390    7.8250 O   0  0  0  0  0  0  0  0  0  0  0  0
  -22.7270  -27.6760    2.9930 O   0  0  0  0  0  0  0  0  0  0  0  0
  -25.8640  -22.6840   20.0250 O   0  0  0  0  0  0  0  0  0  0  0  0
  -27.0810  -27.8220   14.0740 O   0  0  0  0  0  0  0  0  0  0  0  0
  -25.0110  -28.1720   13.2710 O   0  0  0  0  0  0  0  0  0  0  0  0
  -25.5410  -24.4860    8.8740 S   0  0  0  0  0  0  0  0  0  0  0  0
  -28.3890  -29.9800   13.1010 H   0  0  0  0  0  0  0  0  0  0  0  0
  -26.8650  -30.8110   12.8940 H   0  0  0  0  0  0  0  0  0  0  0  0
  -21.4820  -27.3150    6.0420 H   0  0  0  0  0  0  0  0  0  0  0  0
  -20.8250  -27.1280    3.6190 H   0  0  0  0  0  0  0  0  0  0  0  0
  -22.0360  -25.8590    3.7980 H   0  0  0  0  0  0  0  0  0  0  0  0
  -23.7240  -29.4730    3.1910 H   0  0  0  0  0  0  0  0  0  0  0  0
  -21.9370  -29.6100    3.2020 H   0  0  0  0  0  0  0  0  0  0  0  0
  -27.5850  -26.4880    7.8230 H   0  0  0  0  0  0  0  0  0  0  0  0
  -27.9480  -27.2960    9.3290 H   0  0  0  0  0  0  0  0  0  0  0  0
  -25.1000  -22.6310   10.3860 H   0  0  0  0  0  0  0  0  0  0  0  0
  -27.6430  -25.6070   13.1620 H   0  0  0  0  0  0  0  0  0  0  0  0
  -27.6530  -28.1450   11.5850 H   0  0  0  0  0  0  0  0  0  0  0  0
  -26.2380  -21.0340   14.5790 H   0  0  0  0  0  0  0  0  0  0  0  0
  -25.9230  -21.7700   12.2700 H   0  0  0  0  0  0  0  0  0  0  0  0
  -27.1340  -21.6880   18.2940 H   0  0  0  0  0  0  0  0  0  0  0  0
  -26.1880  -21.1000   16.9440 H   0  0  0  0  0  0  0  0  0  0  0  0
  -28.1170  -19.6060   17.5230 H   0  0  0  0  0  0  0  0  0  0  0  0
  -28.3300  -20.2670   15.9040 H   0  0  0  0  0  0  0  0  0  0  0  0
  -29.2290  -20.9440   17.2620 H   0  0  0  0  0  0  0  0  0  0  0  0
  -25.8730  -23.9970   18.4370 H   0  0  0  0  0  0  0  0  0  0  0  0
  -24.3380  -21.3160   20.1560 H   0  0  0  0  0  0  0  0  0  0  0  0
  -23.7880  -22.9790   20.2000 H   0  0  0  0  0  0  0  0  0  0  0  0
  -24.3450  -22.2560   18.6800 H   0  0  0  0  0  0  0  0  0  0  0  0
  -27.4290  -31.5610    9.2670 H   0  0  0  0  0  0  0  0  0  0  0  0
  -26.2610  -31.7330   10.5510 H   0  0  0  0  0  0  0  0  0  0  0  0
  -24.4360  -25.0620   19.9900 H   0  0  0  0  0  0  0  0  0  0  0  0
  -25.5810  -24.9120   21.3090 H   0  0  0  0  0  0  0  0  0  0  0  0
  -25.8820  -26.0290   19.9930 H   0  0  0  0  0  0  0  0  0  0  0  0
  -29.9160  -24.6890   21.8490 H   0  0  0  0  0  0  0  0  0  0  0  0
  -32.9990  -23.9120   18.3500 H   0  0  0  0  0  0  0  0  0  0  0  0
  -32.1670  -25.3910   17.9000 H   0  0  0  0  0  0  0  0  0  0  0  0
  -33.6000  -26.7780   19.1620 H   0  0  0  0  0  0  0  0  0  0  0  0
  -34.5700  -25.7340   18.1410 H   0  0  0  0  0  0  0  0  0  0  0  0
  -35.6650  -27.0420   20.6730 H   0  0  0  0  0  0  0  0  0  0  0  0
  -37.6810  -26.4250   19.3120 H   0  0  0  0  0  0  0  0  0  0  0  0
  -36.8960  -24.8230   18.8740 H   0  0  0  0  0  0  0  0  0  0  0  0
  -36.8220  -24.2030   21.2970 H   0  0  0  0  0  0  0  0  0  0  0  0
  -37.6080  -25.8060   21.7220 H   0  0  0  0  0  0  0  0  0  0  0  0
  -34.2150  -25.0780   22.2540 H   0  0  0  0  0  0  0  0  0  0  0  0
  -33.3750  -26.4050   21.4780 H   0  0  0  0  0  0  0  0  0  0  0  0
  -31.8640  -24.6050   22.0270 H   0  0  0  0  0  0  0  0  0  0  0  0
  -32.8070  -23.4270   21.1700 H   0  0  0  0  0  0  0  0  0  0  0  0
  -28.9670  -30.3260   10.7330 H   0  0  0  0  0  0  0  0  0  0  0  0
  -28.5490  -31.8470   11.4870 H   0  0  0  0  0  0  0  0  0  0  0  0
  -30.4820  -24.2730   17.5780 H   0  0  0  0  0  0  0  0  0  0  0  0
  -29.1010  -26.4630   15.0290 H   0  0  0  0  0  0  0  0  0  0  0  0
  -29.4860  -26.2790   16.6920 H   0  0  0  0  0  0  0  0  0  0  0  0
  -26.4730  -28.0300   18.0520 H   0  0  0  0  0  0  0  0  0  0  0  0
  -26.4360  -26.2980   17.7920 H   0  0  0  0  0  0  0  0  0  0  0  0
  -27.8690  -27.0560   18.4970 H   0  0  0  0  0  0  0  0  0  0  0  0
  -27.6850  -29.5420   16.3490 H   0  0  0  0  0  0  0  0  0  0  0  0
  -29.0710  -28.8030   17.1230 H   0  0  0  0  0  0  0  0  0  0  0  0
  -28.9680  -28.8360   15.3780 H   0  0  0  0  0  0  0  0  0  0  0  0
  -25.7780  -28.1650   15.6710 H   0  0  0  0  0  0  0  0  0  0  0  0
  -25.9680  -26.4580   15.2640 H   0  0  0  0  0  0  0  0  0  0  0  0
  -25.1860  -27.5250    9.2570 H   0  0  0  0  0  0  0  0  0  0  0  0
  -24.3790  -27.1960    4.8420 H   0  0  0  0  0  0  0  0  0  0  0  0
  -22.6200  -29.6520    5.6600 H   0  0  0  0  0  0  0  0  0  0  0  0
  -25.5030  -28.1640   10.6490 H   0  0  0  0  0  0  0  0  0  0  0  0
  -25.9570  -27.2340    6.4410 H   0  0  0  0  0  0  0  0  0  0  0  0
  -34.8310  -24.2710   20.0610 H   0  0  0  0  0  0  0  0  0  0  0  0
  1 12  1  0  0  0  0
  1 34  1  0  0  0  0
  1 63  1  0  0  0  0
  1 64  1  0  0  0  0
  2  3  1  0  0  0  0
  2 46  1  0  0  0  0
  2 47  1  0  0  0  0
  2 65  1  1  0  0  0
  3 58  1  0  0  0  0
  3 66  1  0  0  0  0
  3 67  1  0  0  0  0
  4 47  1  0  0  0  0
  4 58  1  0  0  0  0
  4 68  1  0  0  0  0
  4 69  1  0  0  0  0
  5  6  1  0  0  0  0
  5 44  1  0  0  0  0
  5 70  1  0  0  0  0
  5 71  1  0  0  0  0
  6 51  2  0  0  0  0
  6 62  1  0  0  0  0
  7  8  2  0  0  0  0
  7  9  1  0  0  0  0
  7 51  1  0  0  0  0
  8 62  1  0  0  0  0
  8 72  1  0  0  0  0
  9 10  1  0  0  0  0
  9 15  2  0  0  0  0
 10 11  2  0  0  0  0
 10 73  1  0  0  0  0
 11 13  1  0  0  0  0
 11 36  1  0  0  0  0
 12 42  1  0  0  0  0
 12 48  1  0  0  0  0
 12 74  1  6  0  0  0
 13 14  2  0  0  0  0
 13 52  1  0  0  0  0
 14 15  1  0  0  0  0
 14 75  1  0  0  0  0
 15 76  1  0  0  0  0
 16 17  1  0  0  0  0
 16 52  1  0  0  0  0
 16 77  1  0  0  0  0
 16 78  1  0  0  0  0
 17 79  1  0  0  0  0
 17 80  1  0  0  0  0
 17 81  1  0  0  0  0
 18 19  1  0  0  0  0
 18 36  2  0  0  0  0
 18 52  1  0  0  0  0
 19 20  2  0  0  0  0
 19 35  1  0  0  0  0
 20 21  1  0  0  0  0
 20 53  1  0  0  0  0
 21 24  1  0  0  0  0
 21 59  1  0  0  0  0
 21 82  1  6  0  0  0
 22 59  1  0  0  0  0
 22 83  1  0  0  0  0
 22 84  1  0  0  0  0
 22 85  1  0  0  0  0
 23 34  1  0  0  0  0
 23 49  1  0  0  0  0
 23 86  1  0  0  0  0
 23 87  1  0  0  0  0
 24 88  1  0  0  0  0
 24 89  1  0  0  0  0
 24 90  1  0  0  0  0
 25 26  1  0  0  0  0
 25 53  2  0  0  0  0
 25 91  1  0  0  0  0
 26 35  2  0  0  0  0
 26 54  1  0  0  0  0
 27 28  1  0  0  0  0
 27 54  1  0  0  0  0
 27 92  1  0  0  0  0
 27 93  1  0  0  0  0
 28 55  1  0  0  0  0
 28 94  1  0  0  0  0
 28 95  1  0  0  0  0
 29 30  1  0  0  0  0
 29 31  1  0  0  0  0
 29 55  1  0  0  0  0
 29 96  1  0  0  0  0
 30 31  1  0  0  0  0
 30 97  1  0  0  0  0
 30 98  1  0  0  0  0
 31 99  1  0  0  0  0
 31100  1  0  0  0  0
 32 33  1  0  0  0  0
 32 55  1  0  0  0  0
 32101  1  0  0  0  0
 32102  1  0  0  0  0
 33 54  1  0  0  0  0
 33103  1  0  0  0  0
 33104  1  0  0  0  0
 34105  1  0  0  0  0
 34106  1  0  0  0  0
 35107  1  0  0  0  0
 36 37  1  0  0  0  0
 37 38  1  0  0  0  0
 37108  1  0  0  0  0
 37109  1  0  0  0  0
 38 39  1  0  0  0  0
 38 40  1  0  0  0  0
 38 41  1  0  0  0  0
 39110  1  0  0  0  0
 39111  1  0  0  0  0
 39112  1  0  0  0  0
 40113  1  0  0  0  0
 40114  1  0  0  0  0
 40115  1  0  0  0  0
 41 60  1  0  0  0  0
 41116  1  0  0  0  0
 41117  1  0  0  0  0
 42 60  1  0  0  0  0
 42 61  2  0  0  0  0
 43 44  1  0  0  0  0
 43 49  1  0  0  0  0
 43 56  2  0  0  0  0
 44 50  1  0  0  0  0
 44118  1  1  0  0  0
 45 46  1  0  0  0  0
 45 50  1  0  0  0  0
 45 57  2  0  0  0  0
 46 47  1  0  0  0  0
 46119  1  6  0  0  0
 47120  1  1  0  0  0
 48 49  1  0  0  0  0
 48121  1  0  0  0  0
 50122  1  0  0  0  0
 55123  1  6  0  0  0
M  CHG  1  55   1
M  END
>  <COMPND>
    title: molecule 1

$$$$
8TBI_ligand0.pdb
 OpenBabel06042612053D

123132  0  0  1  0  0  0  0  0999 V2000
  -27.7610   12.7640  -49.9170 C   0  0  0  0  0  0  0  0  0  0  0  0
  -22.1970   15.1160  -57.1580 C   0  0  1  0  0  0  0  0  0  0  0  0
  -21.9720   15.6360  -58.5640 C   0  0  0  0  0  0  0  0  0  0  0  0
  -22.6790   13.4500  -58.8300 C   0  0  0  0  0  0  0  0  0  0  0  0
  -27.0800   15.8450  -53.5720 C   0  0  0  0  0  0  0  0  0  0  0  0
  -26.5790   17.0740  -52.8640 C   0  0  0  0  0  0  0  0  0  0  0  0
  -26.4220   18.6430  -51.3230 C   0  0  0  0  0  0  0  0  0  0  0  0
  -25.4970   19.1200  -52.1960 C   0  0  0  0  0  0  0  0  0  0  0  0
  -26.7180   19.1250  -49.9720 C   0  0  0  0  0  0  0  0  0  0  0  0
  -27.3020   18.3000  -49.0240 C   0  0  0  0  0  0  0  0  0  0  0  0
  -27.5190   18.7680  -47.7260 C   0  0  0  0  0  0  0  0  0  0  0  0
  -26.9760   13.9980  -50.3610 C   0  0  1  0  0  0  0  0  0  0  0  0
  -27.1460   20.0910  -47.4110 C   0  0  0  0  0  0  0  0  0  0  0  0
  -26.5190   20.9090  -48.3470 C   0  0  0  0  0  0  0  0  0  0  0  0
  -26.3640   20.4260  -49.6180 C   0  0  0  0  0  0  0  0  0  0  0  0
  -27.2170   21.5750  -45.3940 C   0  0  0  0  0  0  0  0  0  0  0  0
  -28.3360   22.4810  -45.7290 C   0  0  0  0  0  0  0  0  0  0  0  0
  -27.9860   19.1540  -45.5540 C   0  0  0  0  0  0  0  0  0  0  0  0
  -28.5050   19.0730  -44.1800 C   0  0  0  0  0  0  0  0  0  0  0  0
  -27.6920   19.1060  -43.0340 C   0  0  0  0  0  0  0  0  0  0  0  0
  -26.1830   19.2230  -43.1100 C   0  0  2  0  0  0  0  0  0  0  0  0
  -24.5790   20.9700  -43.0930 C   0  0  0  0  0  0  0  0  0  0  0  0
  -27.0730   11.6530  -52.0360 C   0  0  0  0  0  0  0  0  0  0  0  0
  -25.5280   18.1610  -42.2630 C   0  0  0  0  0  0  0  0  0  0  0  0
  -29.5250   18.8060  -41.6620 C   0  0  0  0  0  0  0  0  0  0  0  0
  -30.3880   18.7830  -42.7380 C   0  0  0  0  0  0  0  0  0  0  0  0
  -32.5890   18.3700  -43.7230 C   0  0  0  0  0  0  0  0  0  0  0  0
  -33.9050   17.7090  -43.4210 C   0  0  0  0  0  0  0  0  0  0  0  0
  -35.7370   17.4250  -41.9650 C   0  0  0  0  0  0  0  0  0  0  0  0
  -37.0140   17.8060  -42.6350 C   0  0  0  0  0  0  0  0  0  0  0  0
  -36.8140   18.1120  -41.1930 C   0  0  0  0  0  0  0  0  0  0  0  0
  -33.6380   18.1370  -41.0880 C   0  0  0  0  0  0  0  0  0  0  0  0
  -32.4250   19.0130  -41.3190 C   0  0  0  0  0  0  0  0  0  0  0  0
  -28.2320   11.9350  -51.1000 C   0  0  0  0  0  0  0  0  0  0  0  0
  -29.8730   18.9450  -44.0060 C   0  0  0  0  0  0  0  0  0  0  0  0
  -28.0490   18.1820  -46.5360 C   0  0  0  0  0  0  0  0  0  0  0  0
  -28.6840   16.8290  -46.4460 C   0  0  0  0  0  0  0  0  0  0  0  0
  -27.7600   15.6790  -46.0410 C   0  0  0  0  0  0  0  0  0  0  0  0
  -27.1570   15.9600  -44.6740 C   0  0  0  0  0  0  0  0  0  0  0  0
  -28.5950   14.3990  -45.9900 C   0  0  0  0  0  0  0  0  0  0  0  0
  -26.6150   15.4990  -47.0420 C   0  0  0  0  0  0  0  0  0  0  0  0
  -26.2830   14.6060  -49.1720 C   0  0  0  0  0  0  0  0  0  0  0  0
  -26.3890   13.4460  -53.6720 C   0  0  0  0  0  0  0  0  0  0  0  0
  -25.9050   14.8820  -53.8260 C   0  0  1  0  0  0  0  0  0  0  0  0
  -24.0340   14.7490  -55.3830 C   0  0  0  0  0  0  0  0  0  0  0  0
  -23.6280   14.7700  -56.8270 C   0  0  2  0  0  0  0  0  0  0  0  0
  -22.6790   13.7070  -57.3400 C   0  0  2  0  0  0  0  0  0  0  0  0
  -25.9430   13.6780  -51.3250 N   0  0  0  0  0  0  0  0  0  0  0  0
  -26.4790   12.9350  -52.3980 N   0  0  0  0  0  0  0  0  0  0  0  0
  -25.3020   15.0520  -55.1310 N   0  0  0  0  0  0  0  0  0  0  0  0
  -27.0650   17.4920  -51.7410 N   0  0  0  0  0  0  0  0  0  0  0  0
  -27.3810   20.2970  -46.0730 N   0  0  0  0  0  0  0  0  0  0  0  0
  -28.1940   18.9480  -41.8030 N   0  0  0  0  0  0  0  0  0  0  0  0
  -31.7370   18.6370  -42.5640 N   0  0  0  0  0  0  0  0  0  0  0  0
  -34.5630   18.2250  -42.2230 N   0  3  1  0  0  0  0  0  0  0  0  0
  -26.7910   12.7950  -54.6290 O   0  0  0  0  0  0  0  0  0  0  0  0
  -23.2430   14.4620  -54.4790 O   0  0  0  0  0  0  0  0  0  0  0  0
  -22.7030   14.7410  -59.4030 O   0  0  0  0  0  0  0  0  0  0  0  0
  -25.8450   20.5240  -42.6420 O   0  0  0  0  0  0  0  0  0  0  0  0
  -27.1680   15.0910  -48.3110 O   0  0  0  0  0  0  0  0  0  0  0  0
  -25.0950   14.6570  -49.0230 O   0  0  0  0  0  0  0  0  0  0  0  0
  -25.2470   18.0130  -53.4740 S   0  0  0  0  0  0  0  0  0  0  0  0
  -28.6200   13.0540  -49.3110 H   0  0  0  0  0  0  0  0  0  0  0  0
  -27.1370   12.1330  -49.2820 H   0  0  0  0  0  0  0  0  0  0  0  0
  -21.4830   15.3590  -56.3750 H   0  0  0  0  0  0  0  0  0  0  0  0
  -20.9090   15.6010  -58.8040 H   0  0  0  0  0  0  0  0  0  0  0  0
  -22.3330   16.6570  -58.6810 H   0  0  0  0  0  0  0  0  0  0  0  0
  -23.5590   12.8790  -59.1100 H   0  0  0  0  0  0  0  0  0  0  0  0
  -21.7780   12.9120  -59.1240 H   0  0  0  0  0  0  0  0  0  0  0  0
  -27.5380   16.1480  -54.5080 H   0  0  0  0  0  0  0  0  0  0  0  0
  -27.8710   15.3940  -52.9710 H   0  0  0  0  0  0  0  0  0  0  0  0
  -24.8620   19.9850  -52.1140 H   0  0  0  0  0  0  0  0  0  0  0  0
  -27.5870   17.2920  -49.2690 H   0  0  0  0  0  0  0  0  0  0  0  0
  -27.6560   14.7260  -50.8010 H   0  0  0  0  0  0  0  0  0  0  0  0
  -26.1930   21.9060  -48.0900 H   0  0  0  0  0  0  0  0  0  0  0  0
  -25.9110   21.0710  -50.3540 H   0  0  0  0  0  0  0  0  0  0  0  0
  -27.2170   21.4420  -44.3200 H   0  0  0  0  0  0  0  0  0  0  0  0
  -26.2570   22.0140  -45.6690 H   0  0  0  0  0  0  0  0  0  0  0  0
  -28.2680   23.4100  -45.1670 H   0  0  0  0  0  0  0  0  0  0  0  0
  -28.3510   22.7330  -46.7900 H   0  0  0  0  0  0  0  0  0  0  0  0
  -29.2880   22.0170  -45.4760 H   0  0  0  0  0  0  0  0  0  0  0  0
  -25.8480   19.0920  -44.1390 H   0  0  0  0  0  0  0  0  0  0  0  0
  -24.3920   21.9750  -42.7160 H   0  0  0  0  0  0  0  0  0  0  0  0
  -23.7710   20.3290  -42.7410 H   0  0  0  0  0  0  0  0  0  0  0  0
  -24.5380   21.0140  -44.1810 H   0  0  0  0  0  0  0  0  0  0  0  0
  -27.4230   11.1020  -52.9070 H   0  0  0  0  0  0  0  0  0  0  0  0
  -26.3220   11.0320  -51.5470 H   0  0  0  0  0  0  0  0  0  0  0  0
  -24.4570   18.1560  -42.4100 H   0  0  0  0  0  0  0  0  0  0  0  0
  -25.7020   18.3230  -41.1990 H   0  0  0  0  0  0  0  0  0  0  0  0
  -25.8940   17.1660  -42.5050 H   0  0  0  0  0  0  0  0  0  0  0  0
  -29.8410   18.6620  -40.6420 H   0  0  0  0  0  0  0  0  0  0  0  0
  -32.7760   19.3210  -44.2240 H   0  0  0  0  0  0  0  0  0  0  0  0
  -32.0810   17.7240  -44.4390 H   0  0  0  0  0  0  0  0  0  0  0  0
  -33.7080   16.6510  -43.2680 H   0  0  0  0  0  0  0  0  0  0  0  0
  -34.5670   17.7850  -44.2850 H   0  0  0  0  0  0  0  0  0  0  0  0
  -35.5400   16.3720  -41.7630 H   0  0  0  0  0  0  0  0  0  0  0  0
  -37.7020   17.0010  -42.8860 H   0  0  0  0  0  0  0  0  0  0  0  0
  -36.9970   18.6340  -43.3400 H   0  0  0  0  0  0  0  0  0  0  0  0
  -36.6780   19.1530  -40.9090 H   0  0  0  0  0  0  0  0  0  0  0  0
  -37.3740   17.5140  -40.4770 H   0  0  0  0  0  0  0  0  0  0  0  0
  -34.1450   18.4650  -40.1800 H   0  0  0  0  0  0  0  0  0  0  0  0
  -33.3300   17.1030  -40.9200 H   0  0  0  0  0  0  0  0  0  0  0  0
  -31.7960   18.9450  -40.4360 H   0  0  0  0  0  0  0  0  0  0  0  0
  -32.7260   20.0580  -41.3970 H   0  0  0  0  0  0  0  0  0  0  0  0
  -29.0220   12.4630  -51.6360 H   0  0  0  0  0  0  0  0  0  0  0  0
  -28.6640   11.0200  -50.7220 H   0  0  0  0  0  0  0  0  0  0  0  0
  -30.4890   18.9830  -44.8920 H   0  0  0  0  0  0  0  0  0  0  0  0
  -29.1330   16.5910  -47.4090 H   0  0  0  0  0  0  0  0  0  0  0  0
  -29.5290   16.8640  -45.7590 H   0  0  0  0  0  0  0  0  0  0  0  0
  -26.6090   15.0910  -44.3090 H   0  0  0  0  0  0  0  0  0  0  0  0
  -26.4520   16.7880  -44.7170 H   0  0  0  0  0  0  0  0  0  0  0  0
  -27.9210   16.1950  -43.9320 H   0  0  0  0  0  0  0  0  0  0  0  0
  -27.9580   13.5210  -45.9040 H   0  0  0  0  0  0  0  0  0  0  0  0
  -29.2670   14.4050  -45.1370 H   0  0  0  0  0  0  0  0  0  0  0  0
  -29.2020   14.2640  -46.8860 H   0  0  0  0  0  0  0  0  0  0  0  0
  -25.9710   14.7030  -46.6770 H   0  0  0  0  0  0  0  0  0  0  0  0
  -26.0130   16.4030  -47.1450 H   0  0  0  0  0  0  0  0  0  0  0  0
  -25.1300   15.0940  -53.0900 H   0  0  0  0  0  0  0  0  0  0  0  0
  -24.3930   15.1240  -57.5160 H   0  0  0  0  0  0  0  0  0  0  0  0
  -22.3550   12.9240  -56.6640 H   0  0  0  0  0  0  0  0  0  0  0  0
  -25.5180   14.5310  -51.6810 H   0  0  0  0  0  0  0  0  0  0  0  0
  -25.9180   15.2550  -55.9090 H   0  0  0  0  0  0  0  0  0  0  0  0
  -34.8280   19.1970  -42.3710 H   0  0  0  0  0  0  0  0  0  0  0  0
  1 12  1  0  0  0  0
  1 34  1  0  0  0  0
  1 63  1  0  0  0  0
  1 64  1  0  0  0  0
  2  3  1  0  0  0  0
  2 46  1  0  0  0  0
  2 47  1  0  0  0  0
  2 65  1  1  0  0  0
  3 58  1  0  0  0  0
  3 66  1  0  0  0  0
  3 67  1  0  0  0  0
  4 47  1  0  0  0  0
  4 58  1  0  0  0  0
  4 68  1  0  0  0  0
  4 69  1  0  0  0  0
  5  6  1  0  0  0  0
  5 44  1  0  0  0  0
  5 70  1  0  0  0  0
  5 71  1  0  0  0  0
  6 51  2  0  0  0  0
  6 62  1  0  0  0  0
  7  8  2  0  0  0  0
  7  9  1  0  0  0  0
  7 51  1  0  0  0  0
  8 62  1  0  0  0  0
  8 72  1  0  0  0  0
  9 10  1  0  0  0  0
  9 15  2  0  0  0  0
 10 11  2  0  0  0  0
 10 73  1  0  0  0  0
 11 13  1  0  0  0  0
 11 36  1  0  0  0  0
 12 42  1  0  0  0  0
 12 48  1  0  0  0  0
 12 74  1  6  0  0  0
 13 14  2  0  0  0  0
 13 52  1  0  0  0  0
 14 15  1  0  0  0  0
 14 75  1  0  0  0  0
 15 76  1  0  0  0  0
 16 17  1  0  0  0  0
 16 52  1  0  0  0  0
 16 77  1  0  0  0  0
 16 78  1  0  0  0  0
 17 79  1  0  0  0  0
 17 80  1  0  0  0  0
 17 81  1  0  0  0  0
 18 19  1  0  0  0  0
 18 36  2  0  0  0  0
 18 52  1  0  0  0  0
 19 20  2  0  0  0  0
 19 35  1  0  0  0  0
 20 21  1  0  0  0  0
 20 53  1  0  0  0  0
 21 24  1  0  0  0  0
 21 59  1  0  0  0  0
 21 82  1  6  0  0  0
 22 59  1  0  0  0  0
 22 83  1  0  0  0  0
 22 84  1  0  0  0  0
 22 85  1  0  0  0  0
 23 34  1  0  0  0  0
 23 49  1  0  0  0  0
 23 86  1  0  0  0  0
 23 87  1  0  0  0  0
 24 88  1  0  0  0  0
 24 89  1  0  0  0  0
 24 90  1  0  0  0  0
 25 26  1  0  0  0  0
 25 53  2  0  0  0  0
 25 91  1  0  0  0  0
 26 35  2  0  0  0  0
 26 54  1  0  0  0  0
 27 28  1  0  0  0  0
 27 54  1  0  0  0  0
 27 92  1  0  0  0  0
 27 93  1  0  0  0  0
 28 55  1  0  0  0  0
 28 94  1  0  0  0  0
 28 95  1  0  0  0  0
 29 30  1  0  0  0  0
 29 31  1  0  0  0  0
 29 55  1  0  0  0  0
 29 96  1  0  0  0  0
 30 31  1  0  0  0  0
 30 97  1  0  0  0  0
 30 98  1  0  0  0  0
 31 99  1  0  0  0  0
 31100  1  0  0  0  0
 32 33  1  0  0  0  0
 32 55  1  0  0  0  0
 32101  1  0  0  0  0
 32102  1  0  0  0  0
 33 54  1  0  0  0  0
 33103  1  0  0  0  0
 33104  1  0  0  0  0
 34105  1  0  0  0  0
 34106  1  0  0  0  0
 35107  1  0  0  0  0
 36 37  1  0  0  0  0
 37 38  1  0  0  0  0
 37108  1  0  0  0  0
 37109  1  0  0  0  0
 38 39  1  0  0  0  0
 38 40  1  0  0  0  0
 38 41  1  0  0  0  0
 39110  1  0  0  0  0
 39111  1  0  0  0  0
 39112  1  0  0  0  0
 40113  1  0  0  0  0
 40114  1  0  0  0  0
 40115  1  0  0  0  0
 41 60  1  0  0  0  0
 41116  1  0  0  0  0
 41117  1  0  0  0  0
 42 60  1  0  0  0  0
 42 61  2  0  0  0  0
 43 44  1  0  0  0  0
 43 49  1  0  0  0  0
 43 56  2  0  0  0  0
 44 50  1  0  0  0  0
 44118  1  1  0  0  0
 45 46  1  0  0  0  0
 45 50  1  0  0  0  0
 45 57  2  0  0  0  0
 46 47  1  0  0  0  0
 46119  1  6  0  0  0
 47120  1  1  0  0  0
 48 49  1  0  0  0  0
 48121  1  0  0  0  0
 50122  1  0  0  0  0
 55123  1  6  0  0  0
M  CHG  1  55   1
M  END
>  <COMPND>
    title: molecule 1

$$$$
8TBJ_ligand0.pdb
 OpenBabel06042612053D

123132  0  0  1  0  0  0  0  0999 V2000
  -27.7030  -28.3420   13.1910 C   0  0  0  0  0  0  0  0  0  0  0  0
  -22.1960  -25.9270    5.9030 C   0  0  1  0  0  0  0  0  0  0  0  0
  -21.9150  -25.4510    4.4930 C   0  0  0  0  0  0  0  0  0  0  0  0
  -22.5610  -27.6990    4.3190 C   0  0  0  0  0  0  0  0  0  0  0  0
  -27.0890  -25.2810    9.3960 C   0  0  0  0  0  0  0  0  0  0  0  0
  -26.6580  -24.0000   10.0400 C   0  0  0  0  0  0  0  0  0  0  0  0
  -26.5300  -22.3610   11.5530 C   0  0  0  0  0  0  0  0  0  0  0  0
  -25.6440  -21.8770   10.6430 C   0  0  0  0  0  0  0  0  0  0  0  0
  -26.7890  -21.8550   12.9010 C   0  0  0  0  0  0  0  0  0  0  0  0
  -27.3440  -22.6560   13.8890 C   0  0  0  0  0  0  0  0  0  0  0  0
  -27.5620  -22.1150   15.1480 C   0  0  0  0  0  0  0  0  0  0  0  0
  -27.0110  -27.0550   12.7090 C   0  0  1  0  0  0  0  0  0  0  0  0
  -27.1190  -20.7990   15.4420 C   0  0  0  0  0  0  0  0  0  0  0  0
  -26.5160  -20.0000   14.4750 C   0  0  0  0  0  0  0  0  0  0  0  0
  -26.3790  -20.5440   13.2130 C   0  0  0  0  0  0  0  0  0  0  0  0
  -27.1830  -19.3030   17.4780 C   0  0  0  0  0  0  0  0  0  0  0  0
  -28.3390  -18.4000   17.1620 C   0  0  0  0  0  0  0  0  0  0  0  0
  -27.9810  -21.7020   17.3320 C   0  0  0  0  0  0  0  0  0  0  0  0
  -28.4850  -21.7970   18.7110 C   0  0  0  0  0  0  0  0  0  0  0  0
  -27.6810  -21.6960   19.8630 C   0  0  0  0  0  0  0  0  0  0  0  0
  -26.1680  -21.5910   19.8050 C   0  0  2  0  0  0  0  0  0  0  0  0
  -24.4880  -19.9200   19.9510 C   0  0  0  0  0  0  0  0  0  0  0  0
  -27.1200  -29.3790   11.0210 C   0  0  0  0  0  0  0  0  0  0  0  0
  -25.5410  -22.5900   20.7600 C   0  0  0  0  0  0  0  0  0  0  0  0
  -29.5060  -22.0040   21.2860 C   0  0  0  0  0  0  0  0  0  0  0  0
  -30.3630  -22.0720   20.2000 C   0  0  0  0  0  0  0  0  0  0  0  0
  -32.5100  -22.7120   19.2620 C   0  0  0  0  0  0  0  0  0  0  0  0
  -33.7460  -23.4900   19.6400 C   0  0  0  0  0  0  0  0  0  0  0  0
  -35.4660  -23.9130   21.2450 C   0  0  0  0  0  0  0  0  0  0  0  0
  -36.7530  -23.7270   20.5170 C   0  0  0  0  0  0  0  0  0  0  0  0
  -36.6390  -23.2960   21.9360 C   0  0  0  0  0  0  0  0  0  0  0  0
  -33.4070  -22.9780   21.9870 C   0  0  0  0  0  0  0  0  0  0  0  0
  -32.3430  -21.9670   21.6610 C   0  0  0  0  0  0  0  0  0  0  0  0
  -28.2450  -29.1310   11.9990 C   0  0  0  0  0  0  0  0  0  0  0  0
  -29.8670  -21.9540   18.9240 C   0  0  0  0  0  0  0  0  0  0  0  0
  -28.0680  -22.6700   16.3560 C   0  0  0  0  0  0  0  0  0  0  0  0
  -28.6990  -24.0220   16.5130 C   0  0  0  0  0  0  0  0  0  0  0  0
  -27.7820  -25.1880   16.9420 C   0  0  0  0  0  0  0  0  0  0  0  0
  -27.1970  -24.9020   18.3370 C   0  0  0  0  0  0  0  0  0  0  0  0
  -28.6180  -26.4700   17.0030 C   0  0  0  0  0  0  0  0  0  0  0  0
  -26.6120  -25.3280   15.9600 C   0  0  0  0  0  0  0  0  0  0  0  0
  -26.3280  -26.3830   13.8750 C   0  0  0  0  0  0  0  0  0  0  0  0
  -26.4610  -27.6380    9.3640 C   0  0  0  0  0  0  0  0  0  0  0  0
  -25.9090  -26.2390    9.2010 C   0  0  1  0  0  0  0  0  0  0  0  0
  -24.0480  -26.3590    7.6160 C   0  0  0  0  0  0  0  0  0  0  0  0
  -23.6300  -26.3430    6.1830 C   0  0  2  0  0  0  0  0  0  0  0  0
  -22.5740  -27.3510    5.7990 C   0  0  2  0  0  0  0  0  0  0  0  0
  -25.9610  -27.3280   11.7060 N   0  0  0  0  0  0  0  0  0  0  0  0
  -26.5080  -28.1040   10.6430 N   0  0  0  0  0  0  0  0  0  0  0  0
  -25.3460  -26.1150    7.8730 N   0  0  0  0  0  0  0  0  0  0  0  0
  -27.1230  -23.5650   11.1750 N   0  0  0  0  0  0  0  0  0  0  0  0
  -27.3910  -20.5840   16.7710 N   0  0  0  0  0  0  0  0  0  0  0  0
  -28.1990  -21.8010   21.0990 N   0  0  0  0  0  0  0  0  0  0  0  0
  -31.6840  -22.2900   20.3970 N   0  0  0  0  0  0  0  0  0  0  0  0
  -34.3760  -23.0370   20.8880 N   0  3  1  0  0  0  0  0  0  0  0  0
  -26.8180  -28.3220    8.4110 O   0  0  0  0  0  0  0  0  0  0  0  0
  -23.2430  -26.6110    8.5220 O   0  0  0  0  0  0  0  0  0  0  0  0
  -22.5830  -26.4350    3.6420 O   0  0  0  0  0  0  0  0  0  0  0  0
  -25.8470  -20.2570   20.2350 O   0  0  0  0  0  0  0  0  0  0  0  0
  -27.1840  -25.8380   14.7280 O   0  0  0  0  0  0  0  0  0  0  0  0
  -25.1160  -26.3250   14.0020 O   0  0  0  0  0  0  0  0  0  0  0  0
  -25.4480  -22.9630    9.3360 S   0  0  0  0  0  0  0  0  0  0  0  0
  -28.5180  -28.1080   13.8770 H   0  0  0  0  0  0  0  0  0  0  0  0
  -26.9990  -28.9650   13.7440 H   0  0  0  0  0  0  0  0  0  0  0  0
  -21.5430  -25.5990    6.7070 H   0  0  0  0  0  0  0  0  0  0  0  0
  -20.8400  -25.4530    4.3110 H   0  0  0  0  0  0  0  0  0  0  0  0
  -22.3120  -24.4530    4.3130 H   0  0  0  0  0  0  0  0  0  0  0  0
  -23.4380  -28.2880    4.0690 H   0  0  0  0  0  0  0  0  0  0  0  0
  -21.6570  -28.2510    4.0640 H   0  0  0  0  0  0  0  0  0  0  0  0
  -27.5580  -25.0480    8.4420 H   0  0  0  0  0  0  0  0  0  0  0  0
  -27.8810  -25.7090   10.0140 H   0  0  0  0  0  0  0  0  0  0  0  0
  -25.0300  -20.9920   10.6890 H   0  0  0  0  0  0  0  0  0  0  0  0
  -27.6510  -23.6660   13.6810 H   0  0  0  0  0  0  0  0  0  0  0  0
  -27.7450  -26.3790   12.2740 H   0  0  0  0  0  0  0  0  0  0  0  0
  -26.1810  -18.9990   14.7010 H   0  0  0  0  0  0  0  0  0  0  0  0
  -25.9410  -19.9240   12.4480 H   0  0  0  0  0  0  0  0  0  0  0  0
  -27.1680  -19.4370   18.5480 H   0  0  0  0  0  0  0  0  0  0  0  0
  -26.2300  -18.8650   17.1770 H   0  0  0  0  0  0  0  0  0  0  0  0
  -28.2350  -17.4450   17.6780 H   0  0  0  0  0  0  0  0  0  0  0  0
  -28.4070  -18.1950   16.0930 H   0  0  0  0  0  0  0  0  0  0  0  0
  -29.2770  -18.8490   17.4870 H   0  0  0  0  0  0  0  0  0  0  0  0
  -25.8120  -21.7740   18.7910 H   0  0  0  0  0  0  0  0  0  0  0  0
  -24.2880  -18.9040   20.2900 H   0  0  0  0  0  0  0  0  0  0  0  0
  -23.7830  -20.5810   20.4510 H   0  0  0  0  0  0  0  0  0  0  0  0
  -24.2970  -19.9500   18.8790 H   0  0  0  0  0  0  0  0  0  0  0  0
  -27.5040  -29.9270   10.1620 H   0  0  0  0  0  0  0  0  0  0  0  0
  -26.3550  -30.0120   11.4730 H   0  0  0  0  0  0  0  0  0  0  0  0
  -24.5290  -22.7950   20.4490 H   0  0  0  0  0  0  0  0  0  0  0  0
  -25.4900  -22.2330   21.7820 H   0  0  0  0  0  0  0  0  0  0  0  0
  -26.0570  -23.5510   20.7450 H   0  0  0  0  0  0  0  0  0  0  0  0
  -29.7810  -22.1470   22.3170 H   0  0  0  0  0  0  0  0  0  0  0  0
  -32.8050  -21.8160   18.7140 H   0  0  0  0  0  0  0  0  0  0  0  0
  -31.9540  -23.3450   18.5700 H   0  0  0  0  0  0  0  0  0  0  0  0
  -33.4510  -24.5280   19.7830 H   0  0  0  0  0  0  0  0  0  0  0  0
  -34.4620  -23.4780   18.8170 H   0  0  0  0  0  0  0  0  0  0  0  0
  -35.1630  -24.9260   21.5080 H   0  0  0  0  0  0  0  0  0  0  0  0
  -37.3410  -24.6190   20.3110 H   0  0  0  0  0  0  0  0  0  0  0  0
  -36.8090  -22.9510   19.7560 H   0  0  0  0  0  0  0  0  0  0  0  0
  -36.6160  -22.2280   22.1410 H   0  0  0  0  0  0  0  0  0  0  0  0
  -37.1540  -23.8980   22.6820 H   0  0  0  0  0  0  0  0  0  0  0  0
  -33.9130  -22.6850   22.9080 H   0  0  0  0  0  0  0  0  0  0  0  0
  -32.9620  -23.9600   22.1620 H   0  0  0  0  0  0  0  0  0  0  0  0
  -31.6950  -21.8830   22.5260 H   0  0  0  0  0  0  0  0  0  0  0  0
  -32.7990  -20.9830   21.5510 H   0  0  0  0  0  0  0  0  0  0  0  0
  -29.0520  -28.5800   11.5130 H   0  0  0  0  0  0  0  0  0  0  0  0
  -28.6670  -30.0620   12.3560 H   0  0  0  0  0  0  0  0  0  0  0  0
  -30.4960  -21.9560   18.0480 H   0  0  0  0  0  0  0  0  0  0  0  0
  -29.1620  -24.2900   15.5650 H   0  0  0  0  0  0  0  0  0  0  0  0
  -29.5410  -23.9680   17.2020 H   0  0  0  0  0  0  0  0  0  0  0  0
  -26.6360  -25.7600   18.7070 H   0  0  0  0  0  0  0  0  0  0  0  0
  -26.5080  -24.0590   18.3140 H   0  0  0  0  0  0  0  0  0  0  0  0
  -27.9780  -24.6840   19.0660 H   0  0  0  0  0  0  0  0  0  0  0  0
  -27.9790  -27.3460   17.1130 H   0  0  0  0  0  0  0  0  0  0  0  0
  -29.2970  -26.4530   17.8540 H   0  0  0  0  0  0  0  0  0  0  0  0
  -29.2220  -26.6190   16.1070 H   0  0  0  0  0  0  0  0  0  0  0  0
  -25.9220  -26.0710   16.3520 H   0  0  0  0  0  0  0  0  0  0  0  0
  -26.0650  -24.3980   15.8060 H   0  0  0  0  0  0  0  0  0  0  0  0
  -25.1280  -25.9970    9.9210 H   0  0  0  0  0  0  0  0  0  0  0  0
  -24.3870  -26.0730    5.4500 H   0  0  0  0  0  0  0  0  0  0  0  0
  -22.2190  -28.0730    6.5280 H   0  0  0  0  0  0  0  0  0  0  0  0
  -25.5910  -26.4540   11.3350 H   0  0  0  0  0  0  0  0  0  0  0  0
  -25.9810  -25.9610    7.1000 H   0  0  0  0  0  0  0  0  0  0  0  0
  -34.7460  -22.1030   20.7320 H   0  0  0  0  0  0  0  0  0  0  0  0
  1 12  1  0  0  0  0
  1 34  1  0  0  0  0
  1 63  1  0  0  0  0
  1 64  1  0  0  0  0
  2  3  1  0  0  0  0
  2 46  1  0  0  0  0
  2 47  1  0  0  0  0
  2 65  1  1  0  0  0
  3 58  1  0  0  0  0
  3 66  1  0  0  0  0
  3 67  1  0  0  0  0
  4 47  1  0  0  0  0
  4 58  1  0  0  0  0
  4 68  1  0  0  0  0
  4 69  1  0  0  0  0
  5  6  1  0  0  0  0
  5 44  1  0  0  0  0
  5 70  1  0  0  0  0
  5 71  1  0  0  0  0
  6 51  2  0  0  0  0
  6 62  1  0  0  0  0
  7  8  2  0  0  0  0
  7  9  1  0  0  0  0
  7 51  1  0  0  0  0
  8 62  1  0  0  0  0
  8 72  1  0  0  0  0
  9 10  1  0  0  0  0
  9 15  2  0  0  0  0
 10 11  2  0  0  0  0
 10 73  1  0  0  0  0
 11 13  1  0  0  0  0
 11 36  1  0  0  0  0
 12 42  1  0  0  0  0
 12 48  1  0  0  0  0
 12 74  1  6  0  0  0
 13 14  2  0  0  0  0
 13 52  1  0  0  0  0
 14 15  1  0  0  0  0
 14 75  1  0  0  0  0
 15 76  1  0  0  0  0
 16 17  1  0  0  0  0
 16 52  1  0  0  0  0
 16 77  1  0  0  0  0
 16 78  1  0  0  0  0
 17 79  1  0  0  0  0
 17 80  1  0  0  0  0
 17 81  1  0  0  0  0
 18 19  1  0  0  0  0
 18 36  2  0  0  0  0
 18 52  1  0  0  0  0
 19 20  2  0  0  0  0
 19 35  1  0  0  0  0
 20 21  1  0  0  0  0
 20 53  1  0  0  0  0
 21 24  1  0  0  0  0
 21 59  1  0  0  0  0
 21 82  1  6  0  0  0
 22 59  1  0  0  0  0
 22 83  1  0  0  0  0
 22 84  1  0  0  0  0
 22 85  1  0  0  0  0
 23 34  1  0  0  0  0
 23 49  1  0  0  0  0
 23 86  1  0  0  0  0
 23 87  1  0  0  0  0
 24 88  1  0  0  0  0
 24 89  1  0  0  0  0
 24 90  1  0  0  0  0
 25 26  1  0  0  0  0
 25 53  2  0  0  0  0
 25 91  1  0  0  0  0
 26 35  2  0  0  0  0
 26 54  1  0  0  0  0
 27 28  1  0  0  0  0
 27 54  1  0  0  0  0
 27 92  1  0  0  0  0
 27 93  1  0  0  0  0
 28 55  1  0  0  0  0
 28 94  1  0  0  0  0
 28 95  1  0  0  0  0
 29 30  1  0  0  0  0
 29 31  1  0  0  0  0
 29 55  1  0  0  0  0
 29 96  1  0  0  0  0
 30 31  1  0  0  0  0
 30 97  1  0  0  0  0
 30 98  1  0  0  0  0
 31 99  1  0  0  0  0
 31100  1  0  0  0  0
 32 33  1  0  0  0  0
 32 55  1  0  0  0  0
 32101  1  0  0  0  0
 32102  1  0  0  0  0
 33 54  1  0  0  0  0
 33103  1  0  0  0  0
 33104  1  0  0  0  0
 34105  1  0  0  0  0
 34106  1  0  0  0  0
 35107  1  0  0  0  0
 36 37  1  0  0  0  0
 37 38  1  0  0  0  0
 37108  1  0  0  0  0
 37109  1  0  0  0  0
 38 39  1  0  0  0  0
 38 40  1  0  0  0  0
 38 41  1  0  0  0  0
 39110  1  0  0  0  0
 39111  1  0  0  0  0
 39112  1  0  0  0  0
 40113  1  0  0  0  0
 40114  1  0  0  0  0
 40115  1  0  0  0  0
 41 60  1  0  0  0  0
 41116  1  0  0  0  0
 41117  1  0  0  0  0
 42 60  1  0  0  0  0
 42 61  2  0  0  0  0
 43 44  1  0  0  0  0
 43 49  1  0  0  0  0
 43 56  2  0  0  0  0
 44 50  1  0  0  0  0
 44118  1  1  0  0  0
 45 46  1  0  0  0  0
 45 50  1  0  0  0  0
 45 57  2  0  0  0  0
 46 47  1  0  0  0  0
 46119  1  6  0  0  0
 47120  1  1  0  0  0
 48 49  1  0  0  0  0
 48121  1  0  0  0  0
 50122  1  0  0  0  0
 55123  1  6  0  0  0
M  CHG  1  55   1
M  END
>  <COMPND>
    title: molecule 1

$$$$
8TBK_ligand0.pdb
 OpenBabel06042612053D

123132  0  0  1  0  0  0  0  0999 V2000
    1.4160   28.8820  -32.7010 C   0  0  0  0  0  0  0  0  0  0  0  0
    2.4100   19.9900  -29.6670 C   0  0  1  0  0  0  0  0  0  0  0  0
    2.7750   18.9220  -28.6640 C   0  0  0  0  0  0  0  0  0  0  0  0
    4.7870   19.7130  -29.4490 C   0  0  0  0  0  0  0  0  0  0  0  0
    0.8220   25.7510  -28.9920 C   0  0  0  0  0  0  0  0  0  0  0  0
   -0.6680   25.5370  -29.0830 C   0  0  0  0  0  0  0  0  0  0  0  0
   -2.8280   25.9830  -29.3110 C   0  0  0  0  0  0  0  0  0  0  0  0
   -2.9200   24.6580  -29.0670 C   0  0  0  0  0  0  0  0  0  0  0  0
   -3.9280   26.8740  -29.7010 C   0  0  0  0  0  0  0  0  0  0  0  0
   -3.6710   28.0470  -30.4030 C   0  0  0  0  0  0  0  0  0  0  0  0
   -4.7350   28.8500  -30.8050 C   0  0  0  0  0  0  0  0  0  0  0  0
    0.5020   27.8130  -32.0850 C   0  0  1  0  0  0  0  0  0  0  0  0
   -6.0500   28.4610  -30.4710 C   0  0  0  0  0  0  0  0  0  0  0  0
   -6.3140   27.2920  -29.7670 C   0  0  0  0  0  0  0  0  0  0  0  0
   -5.2390   26.5160  -29.3890 C   0  0  0  0  0  0  0  0  0  0  0  0
   -8.3720   29.3900  -30.7710 C   0  0  0  0  0  0  0  0  0  0  0  0
   -8.7140   29.9220  -29.4050 C   0  0  0  0  0  0  0  0  0  0  0  0
   -6.1640   30.4010  -31.6220 C   0  0  0  0  0  0  0  0  0  0  0  0
   -6.7240   31.6130  -32.2280 C   0  0  0  0  0  0  0  0  0  0  0  0
   -7.5310   31.5970  -33.3840 C   0  0  0  0  0  0  0  0  0  0  0  0
   -7.9020   30.3010  -34.0790 C   0  0  2  0  0  0  0  0  0  0  0  0
   -9.5990   28.6320  -34.0510 C   0  0  0  0  0  0  0  0  0  0  0  0
    3.3540   27.4070  -32.2780 C   0  0  0  0  0  0  0  0  0  0  0  0
   -7.6870   30.3760  -35.5760 C   0  0  0  0  0  0  0  0  0  0  0  0
   -7.7030   33.9140  -33.3450 C   0  0  0  0  0  0  0  0  0  0  0  0
   -6.8860   34.0110  -32.2240 C   0  0  0  0  0  0  0  0  0  0  0  0
   -5.6990   35.3470  -30.5070 C   0  0  0  0  0  0  0  0  0  0  0  0
   -4.8890   36.6200  -30.5240 C   0  0  0  0  0  0  0  0  0  0  0  0
   -5.0230   39.0160  -30.5920 C   0  0  0  0  0  0  0  0  0  0  0  0
   -4.6720   39.4970  -29.2260 C   0  0  0  0  0  0  0  0  0  0  0  0
   -5.7280   40.1940  -30.0140 C   0  0  0  0  0  0  0  0  0  0  0  0
   -6.4410   37.6840  -31.9860 C   0  0  0  0  0  0  0  0  0  0  0  0
   -7.3260   36.4600  -32.0340 C   0  0  0  0  0  0  0  0  0  0  0  0
    2.8180   28.8140  -32.1150 C   0  0  0  0  0  0  0  0  0  0  0  0
   -6.4110   32.8400  -31.6550 C   0  0  0  0  0  0  0  0  0  0  0  0
   -4.8200   30.0810  -31.5260 C   0  0  0  0  0  0  0  0  0  0  0  0
   -3.6570   30.8840  -32.0290 C   0  0  0  0  0  0  0  0  0  0  0  0
   -3.1160   30.5270  -33.4250 C   0  0  0  0  0  0  0  0  0  0  0  0
   -4.1980   30.7910  -34.4770 C   0  0  0  0  0  0  0  0  0  0  0  0
   -1.9180   31.4460  -33.7040 C   0  0  0  0  0  0  0  0  0  0  0  0
   -2.6760   29.0670  -33.5070 C   0  0  0  0  0  0  0  0  0  0  0  0
   -0.8020   27.7730  -32.8360 C   0  0  0  0  0  0  0  0  0  0  0  0
    2.6870   25.6460  -30.6230 C   0  0  0  0  0  0  0  0  0  0  0  0
    1.5370   24.8610  -30.0210 C   0  0  1  0  0  0  0  0  0  0  0  0
    2.1620   22.5010  -30.0820 C   0  0  0  0  0  0  0  0  0  0  0  0
    2.8690   21.4010  -29.3650 C   0  0  2  0  0  0  0  0  0  0  0  0
    3.7260   20.4780  -30.2050 C   0  0  2  0  0  0  0  0  0  0  0  0
    1.0900   26.4820  -32.2110 N   0  0  0  0  0  0  0  0  0  0  0  0
    2.3940   26.4820  -31.6700 N   0  0  0  0  0  0  0  0  0  0  0  0
    2.0540   23.6530  -29.4070 N   0  0  0  0  0  0  0  0  0  0  0  0
   -1.5320   26.4970  -29.2760 N   0  0  0  0  0  0  0  0  0  0  0  0
   -6.9190   29.4090  -30.9810 N   0  0  0  0  0  0  0  0  0  0  0  0
   -8.0160   32.7350  -33.9080 N   0  0  0  0  0  0  0  0  0  0  0  0
   -6.6090   35.2350  -31.6550 N   0  0  0  0  0  0  0  0  0  0  0  0
   -5.7670   37.7820  -30.6870 N   0  3  1  0  0  0  0  0  0  0  0  0
    3.8320   25.5850  -30.1830 O   0  0  0  0  0  0  0  0  0  0  0  0
    1.7200   22.3460  -31.2180 O   0  0  0  0  0  0  0  0  0  0  0  0
    4.1040   19.2690  -28.2780 O   0  0  0  0  0  0  0  0  0  0  0  0
   -9.2750   29.9970  -33.8260 O   0  0  0  0  0  0  0  0  0  0  0  0
   -1.4980   28.8950  -32.6590 O   0  0  0  0  0  0  0  0  0  0  0  0
   -1.1440   26.8630  -33.5470 O   0  0  0  0  0  0  0  0  0  0  0  0
   -1.3670   23.9630  -28.9720 S   0  0  0  0  0  0  0  0  0  0  0  0
    1.0040   29.8780  -32.5340 H   0  0  0  0  0  0  0  0  0  0  0  0
    1.4770   28.7510  -33.7830 H   0  0  0  0  0  0  0  0  0  0  0  0
    1.5870   19.8050  -30.3540 H   0  0  0  0  0  0  0  0  0  0  0  0
    2.7470   17.9410  -29.1360 H   0  0  0  0  0  0  0  0  0  0  0  0
    2.1050   18.9300  -27.8050 H   0  0  0  0  0  0  0  0  0  0  0  0
    5.6120   20.3720  -29.2030 H   0  0  0  0  0  0  0  0  0  0  0  0
    5.1460   18.8690  -30.0380 H   0  0  0  0  0  0  0  0  0  0  0  0
    1.1380   25.5100  -27.9830 H   0  0  0  0  0  0  0  0  0  0  0  0
    1.0270   26.8140  -29.1340 H   0  0  0  0  0  0  0  0  0  0  0  0
   -3.7820   24.0180  -29.0430 H   0  0  0  0  0  0  0  0  0  0  0  0
   -2.6630   28.3480  -30.6260 H   0  0  0  0  0  0  0  0  0  0  0  0
    0.3210   28.0300  -31.0330 H   0  0  0  0  0  0  0  0  0  0  0  0
   -7.3240   27.0010  -29.5230 H   0  0  0  0  0  0  0  0  0  0  0  0
   -5.4270   25.6200  -28.8230 H   0  0  0  0  0  0  0  0  0  0  0  0
   -8.8650   30.0190  -31.5020 H   0  0  0  0  0  0  0  0  0  0  0  0
   -8.7460   28.3750  -30.9060 H   0  0  0  0  0  0  0  0  0  0  0  0
   -9.7920   29.9100  -29.2410 H   0  0  0  0  0  0  0  0  0  0  0  0
   -8.2510   29.3330  -28.6130 H   0  0  0  0  0  0  0  0  0  0  0  0
   -8.3730   30.9500  -29.3100 H   0  0  0  0  0  0  0  0  0  0  0  0
   -7.2770   29.4910  -33.7050 H   0  0  0  0  0  0  0  0  0  0  0  0
  -10.6470   28.4670  -33.8050 H   0  0  0  0  0  0  0  0  0  0  0  0
   -9.4570   28.3270  -35.0860 H   0  0  0  0  0  0  0  0  0  0  0  0
   -9.0090   27.9770  -33.4090 H   0  0  0  0  0  0  0  0  0  0  0  0
    4.3460   27.3390  -31.8330 H   0  0  0  0  0  0  0  0  0  0  0  0
    3.4640   27.1550  -33.3340 H   0  0  0  0  0  0  0  0  0  0  0  0
   -7.8020   29.4140  -36.0510 H   0  0  0  0  0  0  0  0  0  0  0  0
   -8.3920   31.0620  -36.0460 H   0  0  0  0  0  0  0  0  0  0  0  0
   -6.6870   30.7330  -35.8150 H   0  0  0  0  0  0  0  0  0  0  0  0
   -8.1540   34.7450  -33.8590 H   0  0  0  0  0  0  0  0  0  0  0  0
   -6.2830   35.2770  -29.5890 H   0  0  0  0  0  0  0  0  0  0  0  0
   -4.9540   34.5570  -30.4830 H   0  0  0  0  0  0  0  0  0  0  0  0
   -4.1710   36.5860  -31.3400 H   0  0  0  0  0  0  0  0  0  0  0  0
   -4.3160   36.7000  -29.6000 H   0  0  0  0  0  0  0  0  0  0  0  0
   -4.3000   39.1670  -31.3930 H   0  0  0  0  0  0  0  0  0  0  0  0
   -3.7170   40.0040  -29.1070 H   0  0  0  0  0  0  0  0  0  0  0  0
   -4.9960   38.9070  -28.3720 H   0  0  0  0  0  0  0  0  0  0  0  0
   -6.7620   40.0760  -29.6980 H   0  0  0  0  0  0  0  0  0  0  0  0
   -5.4820   41.1730  -30.4200 H   0  0  0  0  0  0  0  0  0  0  0  0
   -7.0510   38.5740  -32.1500 H   0  0  0  0  0  0  0  0  0  0  0  0
   -5.7070   37.6510  -32.7940 H   0  0  0  0  0  0  0  0  0  0  0  0
   -7.7600   36.4480  -33.0280 H   0  0  0  0  0  0  0  0  0  0  0  0
   -8.1550   36.5900  -31.3390 H   0  0  0  0  0  0  0  0  0  0  0  0
    2.8020   29.0910  -31.0600 H   0  0  0  0  0  0  0  0  0  0  0  0
    3.4430   29.5340  -32.6250 H   0  0  0  0  0  0  0  0  0  0  0  0
   -5.8120   32.8110  -30.7610 H   0  0  0  0  0  0  0  0  0  0  0  0
   -2.8420   30.7790  -31.3150 H   0  0  0  0  0  0  0  0  0  0  0  0
   -3.8940   31.9470  -32.0020 H   0  0  0  0  0  0  0  0  0  0  0  0
   -3.8030   30.6660  -35.4850 H   0  0  0  0  0  0  0  0  0  0  0  0
   -5.0190   30.0850  -34.3680 H   0  0  0  0  0  0  0  0  0  0  0  0
   -4.6030   31.8010  -34.4030 H   0  0  0  0  0  0  0  0  0  0  0  0
   -1.3700   31.1190  -34.5870 H   0  0  0  0  0  0  0  0  0  0  0  0
   -2.2440   32.4670  -33.8850 H   0  0  0  0  0  0  0  0  0  0  0  0
   -1.2070   31.4700  -32.8770 H   0  0  0  0  0  0  0  0  0  0  0  0
   -2.3910   28.8510  -34.5350 H   0  0  0  0  0  0  0  0  0  0  0  0
   -3.4720   28.3760  -33.2300 H   0  0  0  0  0  0  0  0  0  0  0  0
    0.8270   24.5650  -30.7930 H   0  0  0  0  0  0  0  0  0  0  0  0
    3.1880   21.6160  -28.3470 H   0  0  0  0  0  0  0  0  0  0  0  0
    3.8480   20.6640  -31.2670 H   0  0  0  0  0  0  0  0  0  0  0  0
    0.5190   25.7990  -31.7200 H   0  0  0  0  0  0  0  0  0  0  0  0
    2.4650   23.7270  -28.4840 H   0  0  0  0  0  0  0  0  0  0  0  0
   -6.4670   37.7680  -29.9520 H   0  0  0  0  0  0  0  0  0  0  0  0
  1 12  1  0  0  0  0
  1 34  1  0  0  0  0
  1 63  1  0  0  0  0
  1 64  1  0  0  0  0
  2  3  1  0  0  0  0
  2 46  1  0  0  0  0
  2 47  1  0  0  0  0
  2 65  1  6  0  0  0
  3 58  1  0  0  0  0
  3 66  1  0  0  0  0
  3 67  1  0  0  0  0
  4 47  1  0  0  0  0
  4 58  1  0  0  0  0
  4 68  1  0  0  0  0
  4 69  1  0  0  0  0
  5  6  1  0  0  0  0
  5 44  1  0  0  0  0
  5 70  1  0  0  0  0
  5 71  1  0  0  0  0
  6 51  2  0  0  0  0
  6 62  1  0  0  0  0
  7  8  2  0  0  0  0
  7  9  1  0  0  0  0
  7 51  1  0  0  0  0
  8 62  1  0  0  0  0
  8 72  1  0  0  0  0
  9 10  1  0  0  0  0
  9 15  2  0  0  0  0
 10 11  2  0  0  0  0
 10 73  1  0  0  0  0
 11 13  1  0  0  0  0
 11 36  1  0  0  0  0
 12 42  1  0  0  0  0
 12 48  1  0  0  0  0
 12 74  1  1  0  0  0
 13 14  2  0  0  0  0
 13 52  1  0  0  0  0
 14 15  1  0  0  0  0
 14 75  1  0  0  0  0
 15 76  1  0  0  0  0
 16 17  1  0  0  0  0
 16 52  1  0  0  0  0
 16 77  1  0  0  0  0
 16 78  1  0  0  0  0
 17 79  1  0  0  0  0
 17 80  1  0  0  0  0
 17 81  1  0  0  0  0
 18 19  1  0  0  0  0
 18 36  2  0  0  0  0
 18 52  1  0  0  0  0
 19 20  2  0  0  0  0
 19 35  1  0  0  0  0
 20 21  1  0  0  0  0
 20 53  1  0  0  0  0
 21 24  1  0  0  0  0
 21 59  1  0  0  0  0
 21 82  1  1  0  0  0
 22 59  1  0  0  0  0
 22 83  1  0  0  0  0
 22 84  1  0  0  0  0
 22 85  1  0  0  0  0
 23 34  1  0  0  0  0
 23 49  1  0  0  0  0
 23 86  1  0  0  0  0
 23 87  1  0  0  0  0
 24 88  1  0  0  0  0
 24 89  1  0  0  0  0
 24 90  1  0  0  0  0
 25 26  1  0  0  0  0
 25 53  2  0  0  0  0
 25 91  1  0  0  0  0
 26 35  2  0  0  0  0
 26 54  1  0  0  0  0
 27 28  1  0  0  0  0
 27 54  1  0  0  0  0
 27 92  1  0  0  0  0
 27 93  1  0  0  0  0
 28 55  1  0  0  0  0
 28 94  1  0  0  0  0
 28 95  1  0  0  0  0
 29 30  1  0  0  0  0
 29 31  1  0  0  0  0
 29 55  1  0  0  0  0
 29 96  1  0  0  0  0
 30 31  1  0  0  0  0
 30 97  1  0  0  0  0
 30 98  1  0  0  0  0
 31 99  1  0  0  0  0
 31100  1  0  0  0  0
 32 33  1  0  0  0  0
 32 55  1  0  0  0  0
 32101  1  0  0  0  0
 32102  1  0  0  0  0
 33 54  1  0  0  0  0
 33103  1  0  0  0  0
 33104  1  0  0  0  0
 34105  1  0  0  0  0
 34106  1  0  0  0  0
 35107  1  0  0  0  0
 36 37  1  0  0  0  0
 37 38  1  0  0  0  0
 37108  1  0  0  0  0
 37109  1  0  0  0  0
 38 39  1  0  0  0  0
 38 40  1  0  0  0  0
 38 41  1  0  0  0  0
 39110  1  0  0  0  0
 39111  1  0  0  0  0
 39112  1  0  0  0  0
 40113  1  0  0  0  0
 40114  1  0  0  0  0
 40115  1  0  0  0  0
 41 60  1  0  0  0  0
 41116  1  0  0  0  0
 41117  1  0  0  0  0
 42 60  1  0  0  0  0
 42 61  2  0  0  0  0
 43 44  1  0  0  0  0
 43 49  1  0  0  0  0
 43 56  2  0  0  0  0
 44 50  1  0  0  0  0
 44118  1  6  0  0  0
 45 46  1  0  0  0  0
 45 50  1  0  0  0  0
 45 57  2  0  0  0  0
 46 47  1  0  0  0  0
 46119  1  1  0  0  0
 47120  1  6  0  0  0
 48 49  1  0  0  0  0
 48121  1  0  0  0  0
 50122  1  0  0  0  0
 55123  1  1  0  0  0
M  CHG  1  55   1
M  END
>  <COMPND>
    title: molecule 1

$$$$
8TBL_ligand0.pdb
 OpenBabel06042612053D

123132  0  0  1  0  0  0  0  0999 V2000
   38.1570  -29.3400   13.0580 C   0  0  0  0  0  0  0  0  0  0  0  0
   43.6690  -26.8040    5.8000 C   0  0  1  0  0  0  0  0  0  0  0  0
   43.9150  -26.3770    4.3710 C   0  0  0  0  0  0  0  0  0  0  0  0
   43.1910  -28.5650    4.2260 C   0  0  0  0  0  0  0  0  0  0  0  0
   38.7750  -26.1570    9.3690 C   0  0  0  0  0  0  0  0  0  0  0  0
   39.2430  -24.9390   10.0900 C   0  0  0  0  0  0  0  0  0  0  0  0
   39.4610  -23.4520   11.7030 C   0  0  0  0  0  0  0  0  0  0  0  0
   40.3910  -22.9640   10.8530 C   0  0  0  0  0  0  0  0  0  0  0  0
   39.1750  -22.9770   13.0600 C   0  0  0  0  0  0  0  0  0  0  0  0
   38.5400  -23.8080   13.9760 C   0  0  0  0  0  0  0  0  0  0  0  0
   38.3030  -23.3450   15.2670 C   0  0  0  0  0  0  0  0  0  0  0  0
   38.9200  -28.0740   12.6380 C   0  0  1  0  0  0  0  0  0  0  0  0
   38.6960  -22.0340   15.6100 C   0  0  0  0  0  0  0  0  0  0  0  0
   39.3170  -21.1910   14.6970 C   0  0  0  0  0  0  0  0  0  0  0  0
   39.5500  -21.6860   13.4320 C   0  0  0  0  0  0  0  0  0  0  0  0
   38.5470  -20.5530   17.6460 C   0  0  0  0  0  0  0  0  0  0  0  0
   37.4150  -19.6010   17.3690 C   0  0  0  0  0  0  0  0  0  0  0  0
   37.7290  -22.9690   17.4270 C   0  0  0  0  0  0  0  0  0  0  0  0
   37.1980  -23.0950   18.7930 C   0  0  0  0  0  0  0  0  0  0  0  0
   38.0250  -23.0870   19.9500 C   0  0  0  0  0  0  0  0  0  0  0  0
   39.5320  -22.9410   19.8610 C   0  0  2  0  0  0  0  0  0  0  0  0
   41.1950  -21.2570   20.0920 C   0  0  0  0  0  0  0  0  0  0  0  0
   38.7470  -30.3830   10.8830 C   0  0  0  0  0  0  0  0  0  0  0  0
   40.2760  -24.0190   20.6230 C   0  0  0  0  0  0  0  0  0  0  0  0
   36.1790  -23.3590   21.3290 C   0  0  0  0  0  0  0  0  0  0  0  0
   35.3100  -23.3800   20.2450 C   0  0  0  0  0  0  0  0  0  0  0  0
   33.0570  -23.7380   19.3000 C   0  0  0  0  0  0  0  0  0  0  0  0
   31.9180  -24.6470   19.6880 C   0  0  0  0  0  0  0  0  0  0  0  0
   30.0130  -24.8350   21.1550 C   0  0  0  0  0  0  0  0  0  0  0  0
   28.8210  -24.5860   20.2950 C   0  0  0  0  0  0  0  0  0  0  0  0
   28.8610  -24.0500   21.6850 C   0  0  0  0  0  0  0  0  0  0  0  0
   32.1300  -24.0680   22.0020 C   0  0  0  0  0  0  0  0  0  0  0  0
   33.3120  -23.1710   21.7200 C   0  0  0  0  0  0  0  0  0  0  0  0
   37.6170  -30.1030   11.8550 C   0  0  0  0  0  0  0  0  0  0  0  0
   35.8240  -23.2260   18.9650 C   0  0  0  0  0  0  0  0  0  0  0  0
   37.6970  -23.9270   16.4250 C   0  0  0  0  0  0  0  0  0  0  0  0
   37.0860  -25.2930   16.4940 C   0  0  0  0  0  0  0  0  0  0  0  0
   38.0510  -26.4060   16.9380 C   0  0  0  0  0  0  0  0  0  0  0  0
   38.5820  -26.1420   18.3460 C   0  0  0  0  0  0  0  0  0  0  0  0
   37.2730  -27.7270   16.9410 C   0  0  0  0  0  0  0  0  0  0  0  0
   39.2270  -26.5180   15.9770 C   0  0  0  0  0  0  0  0  0  0  0  0
   39.5890  -27.4560   13.8360 C   0  0  0  0  0  0  0  0  0  0  0  0
   39.4380  -28.5540    9.3250 C   0  0  0  0  0  0  0  0  0  0  0  0
   39.9520  -27.1280    9.1770 C   0  0  1  0  0  0  0  0  0  0  0  0
   41.8390  -27.2340    7.6210 C   0  0  0  0  0  0  0  0  0  0  0  0
   42.2480  -27.1770    6.1850 C   0  0  2  0  0  0  0  0  0  0  0  0
   43.2200  -28.2400    5.7030 C   0  0  2  0  0  0  0  0  0  0  0  0
   39.9600  -28.3940   11.6690 N   0  0  0  0  0  0  0  0  0  0  0  0
   39.3960  -29.0990   10.5880 N   0  0  0  0  0  0  0  0  0  0  0  0
   40.5540  -26.9530    7.8660 N   0  0  0  0  0  0  0  0  0  0  0  0
   38.7650  -24.5650   11.2450 N   0  0  0  0  0  0  0  0  0  0  0  0
   38.3530  -21.8180   16.9340 N   0  0  0  0  0  0  0  0  0  0  0  0
   37.5060  -23.2150   21.1830 N   0  0  0  0  0  0  0  0  0  0  0  0
   33.9560  -23.4790   20.4330 N   0  0  0  0  0  0  0  0  0  0  0  0
   31.2170  -24.0930   20.8520 N   0  3  1  0  0  0  0  0  0  0  0  0
   39.0160  -29.1980    8.3730 O   0  0  0  0  0  0  0  0  0  0  0  0
   42.6220  -27.5450    8.5150 O   0  0  0  0  0  0  0  0  0  0  0  0
   43.1260  -27.2910    3.5910 O   0  0  0  0  0  0  0  0  0  0  0  0
   39.8750  -21.6640   20.4020 O   0  0  0  0  0  0  0  0  0  0  0  0
   38.6930  -26.9810   14.7010 O   0  0  0  0  0  0  0  0  0  0  0  0
   40.7800  -27.4340   14.0200 O   0  0  0  0  0  0  0  0  0  0  0  0
   40.5080  -23.9460    9.4590 S   0  0  0  0  0  0  0  0  0  0  0  0
   37.3300  -29.0850   13.7220 H   0  0  0  0  0  0  0  0  0  0  0  0
   38.8150  -29.9990   13.6270 H   0  0  0  0  0  0  0  0  0  0  0  0
   44.4010  -26.5400    6.5580 H   0  0  0  0  0  0  0  0  0  0  0  0
   44.9730  -26.4790    4.1310 H   0  0  0  0  0  0  0  0  0  0  0  0
   43.6050  -25.3470    4.1980 H   0  0  0  0  0  0  0  0  0  0  0  0
   42.3250  -29.1810    3.9900 H   0  0  0  0  0  0  0  0  0  0  0  0
   44.1010  -29.0900    3.9370 H   0  0  0  0  0  0  0  0  0  0  0  0
   38.3390  -25.8710    8.4210 H   0  0  0  0  0  0  0  0  0  0  0  0
   37.9650  -26.6040    9.9490 H   0  0  0  0  0  0  0  0  0  0  0  0
   41.0580  -22.1280   10.9700 H   0  0  0  0  0  0  0  0  0  0  0  0
   38.2330  -24.8030   13.7100 H   0  0  0  0  0  0  0  0  0  0  0  0
   38.2320  -27.3560   12.1930 H   0  0  0  0  0  0  0  0  0  0  0  0
   39.6110  -20.1880   14.9670 H   0  0  0  0  0  0  0  0  0  0  0  0
   40.0140  -21.0350   12.7100 H   0  0  0  0  0  0  0  0  0  0  0  0
   38.5620  -20.7200   18.7140 H   0  0  0  0  0  0  0  0  0  0  0  0
   39.5090  -20.1190   17.3720 H   0  0  0  0  0  0  0  0  0  0  0  0
   37.4920  -18.7090   17.9800 H   0  0  0  0  0  0  0  0  0  0  0  0
   37.3980  -19.2940   16.3230 H   0  0  0  0  0  0  0  0  0  0  0  0
   36.4590  -20.0690   17.5990 H   0  0  0  0  0  0  0  0  0  0  0  0
   39.8550  -22.9950   18.8230 H   0  0  0  0  0  0  0  0  0  0  0  0
   41.3640  -20.2570   20.4890 H   0  0  0  0  0  0  0  0  0  0  0  0
   41.9490  -21.9100   20.5260 H   0  0  0  0  0  0  0  0  0  0  0  0
   41.3490  -21.2090   19.0140 H   0  0  0  0  0  0  0  0  0  0  0  0
   38.3590  -30.8900   10.0000 H   0  0  0  0  0  0  0  0  0  0  0  0
   39.4810  -31.0540   11.3310 H   0  0  0  0  0  0  0  0  0  0  0  0
   41.3250  -24.0430   20.3570 H   0  0  0  0  0  0  0  0  0  0  0  0
   40.2030  -23.8640   21.7000 H   0  0  0  0  0  0  0  0  0  0  0  0
   39.8750  -25.0090   20.4260 H   0  0  0  0  0  0  0  0  0  0  0  0
   35.8800  -23.4780   22.3560 H   0  0  0  0  0  0  0  0  0  0  0  0
   32.6800  -22.7900   18.9160 H   0  0  0  0  0  0  0  0  0  0  0  0
   33.5590  -24.2460   18.4790 H   0  0  0  0  0  0  0  0  0  0  0  0
   32.3000  -25.6340   19.9340 H   0  0  0  0  0  0  0  0  0  0  0  0
   31.2350  -24.7550   18.8450 H   0  0  0  0  0  0  0  0  0  0  0  0
   30.1870  -25.8490   21.5130 H   0  0  0  0  0  0  0  0  0  0  0  0
   28.1630  -25.4300   20.1000 H   0  0  0  0  0  0  0  0  0  0  0  0
   28.9120  -23.8720   19.4790 H   0  0  0  0  0  0  0  0  0  0  0  0
   28.9770  -22.9770   21.8130 H   0  0  0  0  0  0  0  0  0  0  0  0
   28.2240  -24.5350   22.4220 H   0  0  0  0  0  0  0  0  0  0  0  0
   31.6020  -23.7020   22.8830 H   0  0  0  0  0  0  0  0  0  0  0  0
   32.4710  -25.0780   22.2350 H   0  0  0  0  0  0  0  0  0  0  0  0
   33.9630  -23.2150   22.5860 H   0  0  0  0  0  0  0  0  0  0  0  0
   32.9700  -22.1370   21.6660 H   0  0  0  0  0  0  0  0  0  0  0  0
   36.8350  -29.5240   11.3620 H   0  0  0  0  0  0  0  0  0  0  0  0
   37.1600  -31.0250   12.1960 H   0  0  0  0  0  0  0  0  0  0  0  0
   35.2090  -23.1750   18.0800 H   0  0  0  0  0  0  0  0  0  0  0  0
   36.6770  -25.5470   15.5180 H   0  0  0  0  0  0  0  0  0  0  0  0
   36.2210  -25.2820   17.1570 H   0  0  0  0  0  0  0  0  0  0  0  0
   39.1540  -26.9930   18.7150 H   0  0  0  0  0  0  0  0  0  0  0  0
   39.2530  -25.2870   18.3320 H   0  0  0  0  0  0  0  0  0  0  0  0
   37.7790  -25.9500   19.0590 H   0  0  0  0  0  0  0  0  0  0  0  0
   37.9450  -28.5780   17.0380 H   0  0  0  0  0  0  0  0  0  0  0  0
   36.5810  -27.7690   17.7780 H   0  0  0  0  0  0  0  0  0  0  0  0
   36.6910  -27.8770   16.0310 H   0  0  0  0  0  0  0  0  0  0  0  0
   39.8990  -27.2840   16.3560 H   0  0  0  0  0  0  0  0  0  0  0  0
   39.7870  -25.5880   15.8730 H   0  0  0  0  0  0  0  0  0  0  0  0
   40.7150  -26.9110    9.9240 H   0  0  0  0  0  0  0  0  0  0  0  0
   41.4670  -26.8630    5.4940 H   0  0  0  0  0  0  0  0  0  0  0  0
   43.6030  -28.9770    6.4030 H   0  0  0  0  0  0  0  0  0  0  0  0
   40.3970  -27.5420   11.3270 H   0  0  0  0  0  0  0  0  0  0  0  0
   39.9440  -26.7300    7.0900 H   0  0  0  0  0  0  0  0  0  0  0  0
   30.9520  -23.1400   20.6320 H   0  0  0  0  0  0  0  0  0  0  0  0
  1 12  1  0  0  0  0
  1 34  1  0  0  0  0
  1 63  1  0  0  0  0
  1 64  1  0  0  0  0
  2  3  1  0  0  0  0
  2 46  1  0  0  0  0
  2 47  1  0  0  0  0
  2 65  1  1  0  0  0
  3 58  1  0  0  0  0
  3 66  1  0  0  0  0
  3 67  1  0  0  0  0
  4 47  1  0  0  0  0
  4 58  1  0  0  0  0
  4 68  1  0  0  0  0
  4 69  1  0  0  0  0
  5  6  1  0  0  0  0
  5 44  1  0  0  0  0
  5 70  1  0  0  0  0
  5 71  1  0  0  0  0
  6 51  2  0  0  0  0
  6 62  1  0  0  0  0
  7  8  2  0  0  0  0
  7  9  1  0  0  0  0
  7 51  1  0  0  0  0
  8 62  1  0  0  0  0
  8 72  1  0  0  0  0
  9 10  1  0  0  0  0
  9 15  2  0  0  0  0
 10 11  2  0  0  0  0
 10 73  1  0  0  0  0
 11 13  1  0  0  0  0
 11 36  1  0  0  0  0
 12 42  1  0  0  0  0
 12 48  1  0  0  0  0
 12 74  1  6  0  0  0
 13 14  2  0  0  0  0
 13 52  1  0  0  0  0
 14 15  1  0  0  0  0
 14 75  1  0  0  0  0
 15 76  1  0  0  0  0
 16 17  1  0  0  0  0
 16 52  1  0  0  0  0
 16 77  1  0  0  0  0
 16 78  1  0  0  0  0
 17 79  1  0  0  0  0
 17 80  1  0  0  0  0
 17 81  1  0  0  0  0
 18 19  1  0  0  0  0
 18 36  2  0  0  0  0
 18 52  1  0  0  0  0
 19 20  2  0  0  0  0
 19 35  1  0  0  0  0
 20 21  1  0  0  0  0
 20 53  1  0  0  0  0
 21 24  1  0  0  0  0
 21 59  1  0  0  0  0
 21 82  1  6  0  0  0
 22 59  1  0  0  0  0
 22 83  1  0  0  0  0
 22 84  1  0  0  0  0
 22 85  1  0  0  0  0
 23 34  1  0  0  0  0
 23 49  1  0  0  0  0
 23 86  1  0  0  0  0
 23 87  1  0  0  0  0
 24 88  1  0  0  0  0
 24 89  1  0  0  0  0
 24 90  1  0  0  0  0
 25 26  1  0  0  0  0
 25 53  2  0  0  0  0
 25 91  1  0  0  0  0
 26 35  2  0  0  0  0
 26 54  1  0  0  0  0
 27 28  1  0  0  0  0
 27 54  1  0  0  0  0
 27 92  1  0  0  0  0
 27 93  1  0  0  0  0
 28 55  1  0  0  0  0
 28 94  1  0  0  0  0
 28 95  1  0  0  0  0
 29 30  1  0  0  0  0
 29 31  1  0  0  0  0
 29 55  1  0  0  0  0
 29 96  1  0  0  0  0
 30 31  1  0  0  0  0
 30 97  1  0  0  0  0
 30 98  1  0  0  0  0
 31 99  1  0  0  0  0
 31100  1  0  0  0  0
 32 33  1  0  0  0  0
 32 55  1  0  0  0  0
 32101  1  0  0  0  0
 32102  1  0  0  0  0
 33 54  1  0  0  0  0
 33103  1  0  0  0  0
 33104  1  0  0  0  0
 34105  1  0  0  0  0
 34106  1  0  0  0  0
 35107  1  0  0  0  0
 36 37  1  0  0  0  0
 37 38  1  0  0  0  0
 37108  1  0  0  0  0
 37109  1  0  0  0  0
 38 39  1  0  0  0  0
 38 40  1  0  0  0  0
 38 41  1  0  0  0  0
 39110  1  0  0  0  0
 39111  1  0  0  0  0
 39112  1  0  0  0  0
 40113  1  0  0  0  0
 40114  1  0  0  0  0
 40115  1  0  0  0  0
 41 60  1  0  0  0  0
 41116  1  0  0  0  0
 41117  1  0  0  0  0
 42 60  1  0  0  0  0
 42 61  2  0  0  0  0
 43 44  1  0  0  0  0
 43 49  1  0  0  0  0
 43 56  2  0  0  0  0
 44 50  1  0  0  0  0
 44118  1  1  0  0  0
 45 46  1  0  0  0  0
 45 50  1  0  0  0  0
 45 57  2  0  0  0  0
 46 47  1  0  0  0  0
 46119  1  6  0  0  0
 47120  1  1  0  0  0
 48 49  1  0  0  0  0
 48121  1  0  0  0  0
 50122  1  0  0  0  0
 55123  1  6  0  0  0
M  CHG  1  55   1
M  END
>  <COMPND>
    title: molecule 1

$$$$
8TBM_ligand0.pdb
 OpenBabel06042612053D

123132  0  0  1  0  0  0  0  0999 V2000
   27.6250  -29.6040  -13.1450 C   0  0  0  0  0  0  0  0  0  0  0  0
   22.0970  -27.1800   -5.9020 C   0  0  1  0  0  0  0  0  0  0  0  0
   21.8300  -26.7090   -4.4890 C   0  0  0  0  0  0  0  0  0  0  0  0
   22.4930  -28.8960   -4.2940 C   0  0  0  0  0  0  0  0  0  0  0  0
   26.9810  -26.4500   -9.4750 C   0  0  0  0  0  0  0  0  0  0  0  0
   26.4960  -25.2420  -10.2300 C   0  0  0  0  0  0  0  0  0  0  0  0
   26.3190  -23.6860  -11.8060 C   0  0  0  0  0  0  0  0  0  0  0  0
   25.4180  -23.1800  -10.9320 C   0  0  0  0  0  0  0  0  0  0  0  0
   26.5890  -23.2020  -13.1640 C   0  0  0  0  0  0  0  0  0  0  0  0
   27.1900  -24.0420  -14.1010 C   0  0  0  0  0  0  0  0  0  0  0  0
   27.3980  -23.5700  -15.3920 C   0  0  0  0  0  0  0  0  0  0  0  0
   26.8810  -28.3340  -12.7100 C   0  0  1  0  0  0  0  0  0  0  0  0
   27.0130  -22.2500  -15.7150 C   0  0  0  0  0  0  0  0  0  0  0  0
   26.4180  -21.4030  -14.7840 C   0  0  0  0  0  0  0  0  0  0  0  0
   26.2160  -21.9040  -13.5180 C   0  0  0  0  0  0  0  0  0  0  0  0
   27.1050  -20.7600  -17.7440 C   0  0  0  0  0  0  0  0  0  0  0  0
   28.2200  -19.7970  -17.4430 C   0  0  0  0  0  0  0  0  0  0  0  0
   27.9100  -23.1900  -17.5560 C   0  0  0  0  0  0  0  0  0  0  0  0
   28.4210  -23.3130  -18.9250 C   0  0  0  0  0  0  0  0  0  0  0  0
   27.5840  -23.3110  -20.0680 C   0  0  0  0  0  0  0  0  0  0  0  0
   26.0790  -23.1820  -19.9630 C   0  0  2  0  0  0  0  0  0  0  0  0
   24.3580  -21.5390  -20.0630 C   0  0  0  0  0  0  0  0  0  0  0  0
   27.0610  -30.6540  -10.9810 C   0  0  0  0  0  0  0  0  0  0  0  0
   25.3920  -24.2180  -20.8250 C   0  0  0  0  0  0  0  0  0  0  0  0
   29.4200  -23.5500  -21.4620 C   0  0  0  0  0  0  0  0  0  0  0  0
   30.2990  -23.6000  -20.3850 C   0  0  0  0  0  0  0  0  0  0  0  0
   32.2810  -23.3890  -21.8880 C   0  0  0  0  0  0  0  0  0  0  0  0
   33.4950  -24.2450  -22.1530 C   0  0  0  0  0  0  0  0  0  0  0  0
   35.6590  -24.8620  -21.3470 C   0  0  0  0  0  0  0  0  0  0  0  0
   36.8810  -24.4910  -20.5760 C   0  0  0  0  0  0  0  0  0  0  0  0
   36.7440  -24.0770  -22.0020 C   0  0  0  0  0  0  0  0  0  0  0  0
   33.7960  -24.7200  -19.8430 C   0  0  0  0  0  0  0  0  0  0  0  0
   32.5930  -23.8900  -19.4650 C   0  0  0  0  0  0  0  0  0  0  0  0
   28.1900  -30.3520  -11.9450 C   0  0  0  0  0  0  0  0  0  0  0  0
   29.7930  -23.4510  -19.1020 C   0  0  0  0  0  0  0  0  0  0  0  0
   27.9660  -24.1540  -16.5670 C   0  0  0  0  0  0  0  0  0  0  0  0
   28.5640  -25.5250  -16.6880 C   0  0  0  0  0  0  0  0  0  0  0  0
   27.6120  -26.6710  -17.0850 C   0  0  0  0  0  0  0  0  0  0  0  0
   26.9850  -26.4400  -18.4620 C   0  0  0  0  0  0  0  0  0  0  0  0
   28.4480  -27.9530  -17.1320 C   0  0  0  0  0  0  0  0  0  0  0  0
   26.5020  -26.8140  -16.0520 C   0  0  0  0  0  0  0  0  0  0  0  0
   26.1910  -27.7310  -13.9030 C   0  0  0  0  0  0  0  0  0  0  0  0
   26.3430  -28.8630   -9.3750 C   0  0  0  0  0  0  0  0  0  0  0  0
   25.8280  -27.4380   -9.2260 C   0  0  1  0  0  0  0  0  0  0  0  0
   23.9440  -27.5340   -7.6620 C   0  0  0  0  0  0  0  0  0  0  0  0
   23.5460  -27.4940   -6.2210 C   0  0  2  0  0  0  0  0  0  0  0  0
   22.6030  -28.5900   -5.7700 C   0  0  2  0  0  0  0  0  0  0  0  0
   25.8600  -28.6380  -11.7110 N   0  0  0  0  0  0  0  0  0  0  0  0
   26.4100  -29.3800  -10.6460 N   0  0  0  0  0  0  0  0  0  0  0  0
   25.2280  -27.2400   -7.9140 N   0  0  0  0  0  0  0  0  0  0  0  0
   26.9670  -24.8430  -11.3780 N   0  0  0  0  0  0  0  0  0  0  0  0
   27.3160  -22.0330  -17.0450 N   0  0  0  0  0  0  0  0  0  0  0  0
   28.0920  -23.4290  -21.3070 N   0  0  0  0  0  0  0  0  0  0  0  0
   31.6640  -23.6830  -20.5870 N   0  0  0  0  0  0  0  0  0  0  0  0
   34.4400  -24.1530  -21.0330 N   0  3  2  0  0  0  0  0  0  0  0  0
   26.7430  -29.5180   -8.4220 O   0  0  0  0  0  0  0  0  0  0  0  0
   23.1370  -27.8340   -8.5440 O   0  0  0  0  0  0  0  0  0  0  0  0
   22.5860  -27.6160   -3.6760 O   0  0  0  0  0  0  0  0  0  0  0  0
   25.6870  -21.8920  -20.4330 O   0  0  0  0  0  0  0  0  0  0  0  0
   27.0700  -27.2560  -14.7840 O   0  0  0  0  0  0  0  0  0  0  0  0
   24.9990  -27.7220  -14.0690 O   0  0  0  0  0  0  0  0  0  0  0  0
   25.2090  -24.2630   -9.6250 S   0  0  0  0  0  0  0  0  0  0  0  0
   28.4390  -29.3550  -13.8270 H   0  0  0  0  0  0  0  0  0  0  0  0
   26.9540  -30.2670  -13.6950 H   0  0  0  0  0  0  0  0  0  0  0  0
   21.3950  -26.9190   -6.6910 H   0  0  0  0  0  0  0  0  0  0  0  0
   20.7650  -26.7830   -4.2660 H   0  0  0  0  0  0  0  0  0  0  0  0
   22.1600  -25.6820   -4.3360 H   0  0  0  0  0  0  0  0  0  0  0  0
   23.3070  -29.5440   -3.9800 H   0  0  0  0  0  0  0  0  0  0  0  0
   21.5370  -29.3680   -4.0670 H   0  0  0  0  0  0  0  0  0  0  0  0
   27.3970  -26.1160   -8.5330 H   0  0  0  0  0  0  0  0  0  0  0  0
   27.8030  -26.8980  -10.0370 H   0  0  0  0  0  0  0  0  0  0  0  0
   24.7840  -22.3180  -11.0130 H   0  0  0  0  0  0  0  0  0  0  0  0
   27.5000  -25.0410  -13.8450 H   0  0  0  0  0  0  0  0  0  0  0  0
   27.5860  -27.6160  -12.2910 H   0  0  0  0  0  0  0  0  0  0  0  0
   26.1220  -20.3970  -15.0410 H   0  0  0  0  0  0  0  0  0  0  0  0
   25.7660  -21.2560  -12.7830 H   0  0  0  0  0  0  0  0  0  0  0  0
   27.0920  -20.9150  -18.8150 H   0  0  0  0  0  0  0  0  0  0  0  0
   26.1360  -20.3470  -17.4630 H   0  0  0  0  0  0  0  0  0  0  0  0
   28.0760  -18.8530  -17.9490 H   0  0  0  0  0  0  0  0  0  0  0  0
   28.2850  -19.5870  -16.3750 H   0  0  0  0  0  0  0  0  0  0  0  0
   29.1770  -20.2080  -17.7590 H   0  0  0  0  0  0  0  0  0  0  0  0
   25.7550  -23.3200  -18.9320 H   0  0  0  0  0  0  0  0  0  0  0  0
   24.1360  -20.5400  -20.4380 H   0  0  0  0  0  0  0  0  0  0  0  0
   23.6050  -22.2110  -20.4700 H   0  0  0  0  0  0  0  0  0  0  0  0
   24.2550  -21.5090  -18.9790 H   0  0  0  0  0  0  0  0  0  0  0  0
   27.4510  -31.1730  -10.1060 H   0  0  0  0  0  0  0  0  0  0  0  0
   26.3270  -31.3180  -11.4400 H   0  0  0  0  0  0  0  0  0  0  0  0
   24.3280  -24.2680  -20.6270 H   0  0  0  0  0  0  0  0  0  0  0  0
   25.5190  -24.0090  -21.8880 H   0  0  0  0  0  0  0  0  0  0  0  0
   25.7880  -25.2160  -20.6460 H   0  0  0  0  0  0  0  0  0  0  0  0
   29.7090  -23.6370  -22.4950 H   0  0  0  0  0  0  0  0  0  0  0  0
   31.6280  -23.5020  -22.7460 H   0  0  0  0  0  0  0  0  0  0  0  0
   32.5760  -22.3400  -21.8720 H   0  0  0  0  0  0  0  0  0  0  0  0
   33.9790  -23.9010  -23.0680 H   0  0  0  0  0  0  0  0  0  0  0  0
   33.1980  -25.2820  -22.3250 H   0  0  0  0  0  0  0  0  0  0  0  0
   35.5160  -25.9080  -21.6170 H   0  0  0  0  0  0  0  0  0  0  0  0
   37.5900  -25.2850  -20.3500 H   0  0  0  0  0  0  0  0  0  0  0  0
   36.7970  -23.7140  -19.8180 H   0  0  0  0  0  0  0  0  0  0  0  0
   36.5740  -23.0250  -22.2160 H   0  0  0  0  0  0  0  0  0  0  0  0
   37.3640  -24.5970  -22.7290 H   0  0  0  0  0  0  0  0  0  0  0  0
   33.4900  -25.7440  -20.0450 H   0  0  0  0  0  0  0  0  0  0  0  0
   34.4960  -24.7510  -19.0080 H   0  0  0  0  0  0  0  0  0  0  0  0
   32.9070  -22.9170  -19.0860 H   0  0  0  0  0  0  0  0  0  0  0  0
   32.1200  -24.4210  -18.6410 H   0  0  0  0  0  0  0  0  0  0  0  0
   28.9620  -29.7570  -11.4530 H   0  0  0  0  0  0  0  0  0  0  0  0
   28.6630  -31.2630  -12.2910 H   0  0  0  0  0  0  0  0  0  0  0  0
   30.4160  -23.4150  -18.2220 H   0  0  0  0  0  0  0  0  0  0  0  0
   29.0310  -25.7770  -15.7370 H   0  0  0  0  0  0  0  0  0  0  0  0
   29.3970  -25.5040  -17.3900 H   0  0  0  0  0  0  0  0  0  0  0  0
   26.4180  -27.3120  -18.7870 H   0  0  0  0  0  0  0  0  0  0  0  0
   26.2940  -25.6000  -18.4310 H   0  0  0  0  0  0  0  0  0  0  0  0
   27.7410  -26.2370  -19.2220 H   0  0  0  0  0  0  0  0  0  0  0  0
   27.8110  -28.8300  -17.2360 H   0  0  0  0  0  0  0  0  0  0  0  0
   29.1300  -27.9450  -17.9790 H   0  0  0  0  0  0  0  0  0  0  0  0
   29.0470  -28.0970  -16.2320 H   0  0  0  0  0  0  0  0  0  0  0  0
   25.8100  -27.5760  -16.4060 H   0  0  0  0  0  0  0  0  0  0  0  0
   25.9380  -25.8900  -15.9280 H   0  0  0  0  0  0  0  0  0  0  0  0
   25.0440  -27.2360   -9.9560 H   0  0  0  0  0  0  0  0  0  0  0  0
   24.3020  -27.1490   -5.5180 H   0  0  0  0  0  0  0  0  0  0  0  0
   22.2750  -29.3450   -6.4800 H   0  0  0  0  0  0  0  0  0  0  0  0
   25.4540  -27.7790  -11.3520 H   0  0  0  0  0  0  0  0  0  0  0  0
   25.8470  -27.0410   -7.1380 H   0  0  0  0  0  0  0  0  0  0  0  0
   34.6610  -23.1770  -20.8660 H   0  0  0  0  0  0  0  0  0  0  0  0
  1 12  1  0  0  0  0
  1 34  1  0  0  0  0
  1 63  1  0  0  0  0
  1 64  1  0  0  0  0
  2  3  1  0  0  0  0
  2 46  1  0  0  0  0
  2 47  1  0  0  0  0
  2 65  1  6  0  0  0
  3 58  1  0  0  0  0
  3 66  1  0  0  0  0
  3 67  1  0  0  0  0
  4 47  1  0  0  0  0
  4 58  1  0  0  0  0
  4 68  1  0  0  0  0
  4 69  1  0  0  0  0
  5  6  1  0  0  0  0
  5 44  1  0  0  0  0
  5 70  1  0  0  0  0
  5 71  1  0  0  0  0
  6 51  2  0  0  0  0
  6 62  1  0  0  0  0
  7  8  2  0  0  0  0
  7  9  1  0  0  0  0
  7 51  1  0  0  0  0
  8 62  1  0  0  0  0
  8 72  1  0  0  0  0
  9 10  1  0  0  0  0
  9 15  2  0  0  0  0
 10 11  2  0  0  0  0
 10 73  1  0  0  0  0
 11 13  1  0  0  0  0
 11 36  1  0  0  0  0
 12 42  1  0  0  0  0
 12 48  1  0  0  0  0
 12 74  1  1  0  0  0
 13 14  2  0  0  0  0
 13 52  1  0  0  0  0
 14 15  1  0  0  0  0
 14 75  1  0  0  0  0
 15 76  1  0  0  0  0
 16 17  1  0  0  0  0
 16 52  1  0  0  0  0
 16 77  1  0  0  0  0
 16 78  1  0  0  0  0
 17 79  1  0  0  0  0
 17 80  1  0  0  0  0
 17 81  1  0  0  0  0
 18 19  1  0  0  0  0
 18 36  2  0  0  0  0
 18 52  1  0  0  0  0
 19 20  2  0  0  0  0
 19 35  1  0  0  0  0
 20 21  1  0  0  0  0
 20 53  1  0  0  0  0
 21 24  1  0  0  0  0
 21 59  1  0  0  0  0
 21 82  1  1  0  0  0
 22 59  1  0  0  0  0
 22 83  1  0  0  0  0
 22 84  1  0  0  0  0
 22 85  1  0  0  0  0
 23 34  1  0  0  0  0
 23 49  1  0  0  0  0
 23 86  1  0  0  0  0
 23 87  1  0  0  0  0
 24 88  1  0  0  0  0
 24 89  1  0  0  0  0
 24 90  1  0  0  0  0
 25 26  1  0  0  0  0
 25 53  2  0  0  0  0
 25 91  1  0  0  0  0
 26 35  2  0  0  0  0
 26 54  1  0  0  0  0
 27 28  1  0  0  0  0
 27 54  1  0  0  0  0
 27 92  1  0  0  0  0
 27 93  1  0  0  0  0
 28 55  1  0  0  0  0
 28 94  1  0  0  0  0
 28 95  1  0  0  0  0
 29 30  1  0  0  0  0
 29 31  1  0  0  0  0
 29 55  1  0  0  0  0
 29 96  1  0  0  0  0
 30 31  1  0  0  0  0
 30 97  1  0  0  0  0
 30 98  1  0  0  0  0
 31 99  1  0  0  0  0
 31100  1  0  0  0  0
 32 33  1  0  0  0  0
 32 55  1  0  0  0  0
 32101  1  0  0  0  0
 32102  1  0  0  0  0
 33 54  1  0  0  0  0
 33103  1  0  0  0  0
 33104  1  0  0  0  0
 34105  1  0  0  0  0
 34106  1  0  0  0  0
 35107  1  0  0  0  0
 36 37  1  0  0  0  0
 37 38  1  0  0  0  0
 37108  1  0  0  0  0
 37109  1  0  0  0  0
 38 39  1  0  0  0  0
 38 40  1  0  0  0  0
 38 41  1  0  0  0  0
 39110  1  0  0  0  0
 39111  1  0  0  0  0
 39112  1  0  0  0  0
 40113  1  0  0  0  0
 40114  1  0  0  0  0
 40115  1  0  0  0  0
 41 60  1  0  0  0  0
 41116  1  0  0  0  0
 41117  1  0  0  0  0
 42 60  1  0  0  0  0
 42 61  2  0  0  0  0
 43 44  1  0  0  0  0
 43 49  1  0  0  0  0
 43 56  2  0  0  0  0
 44 50  1  0  0  0  0
 44118  1  6  0  0  0
 45 46  1  0  0  0  0
 45 50  1  0  0  0  0
 45 57  2  0  0  0  0
 46 47  1  0  0  0  0
 46119  1  1  0  0  0
 47120  1  6  0  0  0
 48 49  1  0  0  0  0
 48121  1  0  0  0  0
 50122  1  0  0  0  0
 55123  1  1  0  0  0
M  CHG  1  55   1
M  END
>  <COMPND>
    title: molecule 1

$$$$
8TBN_ligand0.pdb
 OpenBabel06042612053D

123132  0  0  1  0  0  0  0  0999 V2000
  -27.8180  -29.4890   13.1570 C   0  0  0  0  0  0  0  0  0  0  0  0
  -22.2820  -27.1260    5.9460 C   0  0  1  0  0  0  0  0  0  0  0  0
  -22.0430  -26.6130    4.5450 C   0  0  0  0  0  0  0  0  0  0  0  0
  -22.7230  -28.8350    4.2920 C   0  0  0  0  0  0  0  0  0  0  0  0
  -27.1300  -26.3720    9.5310 C   0  0  0  0  0  0  0  0  0  0  0  0
  -26.6740  -25.1440   10.2370 C   0  0  0  0  0  0  0  0  0  0  0  0
  -26.5020  -23.5960   11.8280 C   0  0  0  0  0  0  0  0  0  0  0  0
  -25.5350  -23.1320   11.0000 C   0  0  0  0  0  0  0  0  0  0  0  0
  -26.8110  -23.1020   13.1720 C   0  0  0  0  0  0  0  0  0  0  0  0
  -27.3890  -23.9550   14.1080 C   0  0  0  0  0  0  0  0  0  0  0  0
  -27.5830  -23.4750   15.4020 C   0  0  0  0  0  0  0  0  0  0  0  0
  -27.0760  -28.2230   12.7060 C   0  0  1  0  0  0  0  0  0  0  0  0
  -27.1670  -22.1680   15.7360 C   0  0  0  0  0  0  0  0  0  0  0  0
  -26.6170  -21.3010   14.8040 C   0  0  0  0  0  0  0  0  0  0  0  0
  -26.4320  -21.8020   13.5300 C   0  0  0  0  0  0  0  0  0  0  0  0
  -27.3100  -20.7230   17.7960 C   0  0  0  0  0  0  0  0  0  0  0  0
  -28.4160  -19.8080   17.3820 C   0  0  0  0  0  0  0  0  0  0  0  0
  -28.0640  -23.1180   17.5800 C   0  0  0  0  0  0  0  0  0  0  0  0
  -28.5920  -23.2180   18.9450 C   0  0  0  0  0  0  0  0  0  0  0  0
  -27.7390  -23.2220   20.0880 C   0  0  0  0  0  0  0  0  0  0  0  0
  -26.2220  -23.0790   19.9770 C   0  0  2  0  0  0  0  0  0  0  0  0
  -24.5550  -21.3680   20.0050 C   0  0  0  0  0  0  0  0  0  0  0  0
  -27.2020  -30.5500   11.0000 C   0  0  0  0  0  0  0  0  0  0  0  0
  -25.5490  -24.1220   20.8620 C   0  0  0  0  0  0  0  0  0  0  0  0
  -29.5900  -23.5420   21.4910 C   0  0  0  0  0  0  0  0  0  0  0  0
  -30.4770  -23.5910   20.4120 C   0  0  0  0  0  0  0  0  0  0  0  0
  -32.7080  -23.8770   19.4500 C   0  0  0  0  0  0  0  0  0  0  0  0
  -34.0140  -24.5680   19.7520 C   0  0  0  0  0  0  0  0  0  0  0  0
  -35.8280  -24.8470   21.2780 C   0  0  0  0  0  0  0  0  0  0  0  0
  -37.1110  -24.3270   20.7250 C   0  0  0  0  0  0  0  0  0  0  0  0
  -36.8400  -24.2360   22.1840 C   0  0  0  0  0  0  0  0  0  0  0  0
  -33.7050  -24.1990   22.1080 C   0  0  0  0  0  0  0  0  0  0  0  0
  -32.4880  -23.3630   21.8570 C   0  0  0  0  0  0  0  0  0  0  0  0
  -28.3400  -30.2710   11.9570 C   0  0  0  0  0  0  0  0  0  0  0  0
  -29.9750  -23.3940   19.1280 C   0  0  0  0  0  0  0  0  0  0  0  0
  -28.1610  -24.0650   16.5700 C   0  0  0  0  0  0  0  0  0  0  0  0
  -28.7520  -25.4440   16.6430 C   0  0  0  0  0  0  0  0  0  0  0  0
  -27.8170  -26.6070   17.0700 C   0  0  0  0  0  0  0  0  0  0  0  0
  -27.1990  -26.3370   18.4490 C   0  0  0  0  0  0  0  0  0  0  0  0
  -28.6740  -27.8810   17.0910 C   0  0  0  0  0  0  0  0  0  0  0  0
  -26.6710  -26.7600   16.0860 C   0  0  0  0  0  0  0  0  0  0  0  0
  -26.3700  -27.6450   13.9060 C   0  0  0  0  0  0  0  0  0  0  0  0
  -26.4960  -28.7580    9.3890 C   0  0  0  0  0  0  0  0  0  0  0  0
  -25.9770  -27.3430    9.2380 C   0  0  1  0  0  0  0  0  0  0  0  0
  -24.1250  -27.4700    7.6770 C   0  0  0  0  0  0  0  0  0  0  0  0
  -23.7190  -27.4560    6.2440 C   0  0  2  0  0  0  0  0  0  0  0  0
  -22.7750  -28.5480    5.7770 C   0  0  2  0  0  0  0  0  0  0  0  0
  -26.0340  -28.5370   11.7600 N   0  0  0  0  0  0  0  0  0  0  0  0
  -26.5590  -29.2650   10.6650 N   0  0  0  0  0  0  0  0  0  0  0  0
  -25.4090  -27.1550    7.9130 N   0  0  0  0  0  0  0  0  0  0  0  0
  -27.1530  -24.7450   11.3830 N   0  0  0  0  0  0  0  0  0  0  0  0
  -27.4270  -21.9820   17.0750 N   0  0  0  0  0  0  0  0  0  0  0  0
  -28.2700  -23.3370   21.3280 N   0  0  0  0  0  0  0  0  0  0  0  0
  -31.8150  -23.7420   20.6050 N   0  0  0  0  0  0  0  0  0  0  0  0
  -34.6390  -24.0780   20.9860 N   0  3  1  0  0  0  0  0  0  0  0  0
  -26.9360  -29.4030    8.4340 O   0  0  0  0  0  0  0  0  0  0  0  0
  -23.3390  -27.7710    8.5800 O   0  0  0  0  0  0  0  0  0  0  0  0
  -22.7350  -27.5430    3.6970 O   0  0  0  0  0  0  0  0  0  0  0  0
  -25.8350  -21.7960   20.4870 O   0  0  0  0  0  0  0  0  0  0  0  0
  -27.2350  -27.1400   14.7880 O   0  0  0  0  0  0  0  0  0  0  0  0
  -25.1670  -27.6580   14.0760 O   0  0  0  0  0  0  0  0  0  0  0  0
  -25.3830  -24.1620    9.6460 S   0  0  0  0  0  0  0  0  0  0  0  0
  -28.6520  -29.2320   13.8120 H   0  0  0  0  0  0  0  0  0  0  0  0
  -27.1570  -30.1350   13.7370 H   0  0  0  0  0  0  0  0  0  0  0  0
  -21.5840  -26.8710    6.7410 H   0  0  0  0  0  0  0  0  0  0  0  0
  -20.9750  -26.6220    4.3290 H   0  0  0  0  0  0  0  0  0  0  0  0
  -22.4310  -25.6040    4.4080 H   0  0  0  0  0  0  0  0  0  0  0  0
  -23.6060  -29.3920    3.9970 H   0  0  0  0  0  0  0  0  0  0  0  0
  -21.8170  -29.3810    4.0300 H   0  0  0  0  0  0  0  0  0  0  0  0
  -27.6080  -26.0680    8.6040 H   0  0  0  0  0  0  0  0  0  0  0  0
  -27.9200  -26.8290   10.1290 H   0  0  0  0  0  0  0  0  0  0  0  0
  -24.8660  -22.2990   11.1160 H   0  0  0  0  0  0  0  0  0  0  0  0
  -27.6970  -24.9530   13.8520 H   0  0  0  0  0  0  0  0  0  0  0  0
  -27.7650  -27.4960   12.2780 H   0  0  0  0  0  0  0  0  0  0  0  0
  -26.3140  -20.2990   15.0690 H   0  0  0  0  0  0  0  0  0  0  0  0
  -25.9880  -21.1530   12.7930 H   0  0  0  0  0  0  0  0  0  0  0  0
  -27.3700  -20.8690   18.8680 H   0  0  0  0  0  0  0  0  0  0  0  0
  -26.3380  -20.2770   17.5800 H   0  0  0  0  0  0  0  0  0  0  0  0
  -28.3750  -18.8640   17.9190 H   0  0  0  0  0  0  0  0  0  0  0  0
  -28.3810  -19.5780   16.3170 H   0  0  0  0  0  0  0  0  0  0  0  0
  -29.3800  -20.2670   17.5970 H   0  0  0  0  0  0  0  0  0  0  0  0
  -25.8870  -23.2110   18.9490 H   0  0  0  0  0  0  0  0  0  0  0  0
  -24.3150  -20.3950   20.4330 H   0  0  0  0  0  0  0  0  0  0  0  0
  -23.7520  -22.0530   20.2740 H   0  0  0  0  0  0  0  0  0  0  0  0
  -24.5690  -21.2530   18.9220 H   0  0  0  0  0  0  0  0  0  0  0  0
  -27.5780  -31.0780   10.1240 H   0  0  0  0  0  0  0  0  0  0  0  0
  -26.4630  -31.2050   11.4650 H   0  0  0  0  0  0  0  0  0  0  0  0
  -24.4740  -24.1090   20.7420 H   0  0  0  0  0  0  0  0  0  0  0  0
  -25.7540  -23.9540   21.9200 H   0  0  0  0  0  0  0  0  0  0  0  0
  -25.8870  -25.1280   20.6230 H   0  0  0  0  0  0  0  0  0  0  0  0
  -29.8850  -23.6770   22.5180 H   0  0  0  0  0  0  0  0  0  0  0  0
  -32.9020  -22.8840   19.0440 H   0  0  0  0  0  0  0  0  0  0  0  0
  -32.2470  -24.4690   18.6600 H   0  0  0  0  0  0  0  0  0  0  0  0
  -33.8130  -25.6310   19.8680 H   0  0  0  0  0  0  0  0  0  0  0  0
  -34.6990  -24.4710   18.9110 H   0  0  0  0  0  0  0  0  0  0  0  0
  -35.6720  -25.9240   21.3300 H   0  0  0  0  0  0  0  0  0  0  0  0
  -37.8420  -25.0630   20.3970 H   0  0  0  0  0  0  0  0  0  0  0  0
  -37.0870  -23.4080   20.1430 H   0  0  0  0  0  0  0  0  0  0  0  0
  -36.6370  -23.2480   22.5940 H   0  0  0  0  0  0  0  0  0  0  0  0
  -37.3980  -24.9020   22.8380 H   0  0  0  0  0  0  0  0  0  0  0  0
  -34.1840  -23.8630   23.0290 H   0  0  0  0  0  0  0  0  0  0  0  0
  -33.4220  -25.2430   22.2600 H   0  0  0  0  0  0  0  0  0  0  0  0
  -31.8520  -23.4520   22.7330 H   0  0  0  0  0  0  0  0  0  0  0  0
  -32.7650  -22.3100   21.7910 H   0  0  0  0  0  0  0  0  0  0  0  0
  -29.1240  -29.7050   11.4510 H   0  0  0  0  0  0  0  0  0  0  0  0
  -28.7920  -31.1930   12.3050 H   0  0  0  0  0  0  0  0  0  0  0  0
  -30.5900  -23.3660   18.2420 H   0  0  0  0  0  0  0  0  0  0  0  0
  -29.1840  -25.6860   15.6740 H   0  0  0  0  0  0  0  0  0  0  0  0
  -29.6100  -25.4290   17.3140 H   0  0  0  0  0  0  0  0  0  0  0  0
  -26.6380  -27.2030   18.7990 H   0  0  0  0  0  0  0  0  0  0  0  0
  -26.5080  -25.4970   18.4110 H   0  0  0  0  0  0  0  0  0  0  0  0
  -27.9630  -26.1210   19.1970 H   0  0  0  0  0  0  0  0  0  0  0  0
  -28.0510  -28.7680   17.1930 H   0  0  0  0  0  0  0  0  0  0  0  0
  -29.3640  -27.8690   17.9310 H   0  0  0  0  0  0  0  0  0  0  0  0
  -29.2630  -28.0060   16.1820 H   0  0  0  0  0  0  0  0  0  0  0  0
  -26.0230  -27.5620   16.4320 H   0  0  0  0  0  0  0  0  0  0  0  0
  -26.0740  -25.8510   16.0020 H   0  0  0  0  0  0  0  0  0  0  0  0
  -25.1940  -27.1480    9.9710 H   0  0  0  0  0  0  0  0  0  0  0  0
  -24.4690  -27.1020    5.5390 H   0  0  0  0  0  0  0  0  0  0  0  0
  -22.4700  -29.3190    6.4780 H   0  0  0  0  0  0  0  0  0  0  0  0
  -25.5980  -27.6830   11.4220 H   0  0  0  0  0  0  0  0  0  0  0  0
  -26.0290  -26.9560    7.1390 H   0  0  0  0  0  0  0  0  0  0  0  0
  -34.8880  -23.1020   20.8660 H   0  0  0  0  0  0  0  0  0  0  0  0
  1 12  1  0  0  0  0
  1 34  1  0  0  0  0
  1 63  1  0  0  0  0
  1 64  1  0  0  0  0
  2  3  1  0  0  0  0
  2 46  1  0  0  0  0
  2 47  1  0  0  0  0
  2 65  1  1  0  0  0
  3 58  1  0  0  0  0
  3 66  1  0  0  0  0
  3 67  1  0  0  0  0
  4 47  1  0  0  0  0
  4 58  1  0  0  0  0
  4 68  1  0  0  0  0
  4 69  1  0  0  0  0
  5  6  1  0  0  0  0
  5 44  1  0  0  0  0
  5 70  1  0  0  0  0
  5 71  1  0  0  0  0
  6 51  2  0  0  0  0
  6 62  1  0  0  0  0
  7  8  2  0  0  0  0
  7  9  1  0  0  0  0
  7 51  1  0  0  0  0
  8 62  1  0  0  0  0
  8 72  1  0  0  0  0
  9 10  1  0  0  0  0
  9 15  2  0  0  0  0
 10 11  2  0  0  0  0
 10 73  1  0  0  0  0
 11 13  1  0  0  0  0
 11 36  1  0  0  0  0
 12 42  1  0  0  0  0
 12 48  1  0  0  0  0
 12 74  1  6  0  0  0
 13 14  2  0  0  0  0
 13 52  1  0  0  0  0
 14 15  1  0  0  0  0
 14 75  1  0  0  0  0
 15 76  1  0  0  0  0
 16 17  1  0  0  0  0
 16 52  1  0  0  0  0
 16 77  1  0  0  0  0
 16 78  1  0  0  0  0
 17 79  1  0  0  0  0
 17 80  1  0  0  0  0
 17 81  1  0  0  0  0
 18 19  1  0  0  0  0
 18 36  2  0  0  0  0
 18 52  1  0  0  0  0
 19 20  2  0  0  0  0
 19 35  1  0  0  0  0
 20 21  1  0  0  0  0
 20 53  1  0  0  0  0
 21 24  1  0  0  0  0
 21 59  1  0  0  0  0
 21 82  1  6  0  0  0
 22 59  1  0  0  0  0
 22 83  1  0  0  0  0
 22 84  1  0  0  0  0
 22 85  1  0  0  0  0
 23 34  1  0  0  0  0
 23 49  1  0  0  0  0
 23 86  1  0  0  0  0
 23 87  1  0  0  0  0
 24 88  1  0  0  0  0
 24 89  1  0  0  0  0
 24 90  1  0  0  0  0
 25 26  1  0  0  0  0
 25 53  2  0  0  0  0
 25 91  1  0  0  0  0
 26 35  2  0  0  0  0
 26 54  1  0  0  0  0
 27 28  1  0  0  0  0
 27 54  1  0  0  0  0
 27 92  1  0  0  0  0
 27 93  1  0  0  0  0
 28 55  1  0  0  0  0
 28 94  1  0  0  0  0
 28 95  1  0  0  0  0
 29 30  1  0  0  0  0
 29 31  1  0  0  0  0
 29 55  1  0  0  0  0
 29 96  1  0  0  0  0
 30 31  1  0  0  0  0
 30 97  1  0  0  0  0
 30 98  1  0  0  0  0
 31 99  1  0  0  0  0
 31100  1  0  0  0  0
 32 33  1  0  0  0  0
 32 55  1  0  0  0  0
 32101  1  0  0  0  0
 32102  1  0  0  0  0
 33 54  1  0  0  0  0
 33103  1  0  0  0  0
 33104  1  0  0  0  0
 34105  1  0  0  0  0
 34106  1  0  0  0  0
 35107  1  0  0  0  0
 36 37  1  0  0  0  0
 37 38  1  0  0  0  0
 37108  1  0  0  0  0
 37109  1  0  0  0  0
 38 39  1  0  0  0  0
 38 40  1  0  0  0  0
 38 41  1  0  0  0  0
 39110  1  0  0  0  0
 39111  1  0  0  0  0
 39112  1  0  0  0  0
 40113  1  0  0  0  0
 40114  1  0  0  0  0
 40115  1  0  0  0  0
 41 60  1  0  0  0  0
 41116  1  0  0  0  0
 41117  1  0  0  0  0
 42 60  1  0  0  0  0
 42 61  2  0  0  0  0
 43 44  1  0  0  0  0
 43 49  1  0  0  0  0
 43 56  2  0  0  0  0
 44 50  1  0  0  0  0
 44118  1  1  0  0  0
 45 46  1  0  0  0  0
 45 50  1  0  0  0  0
 45 57  2  0  0  0  0
 46 47  1  0  0  0  0
 46119  1  6  0  0  0
 47120  1  1  0  0  0
 48 49  1  0  0  0  0
 48121  1  0  0  0  0
 50122  1  0  0  0  0
 55123  1  6  0  0  0
M  CHG  1  55   1
M  END
>  <COMPND>
    title: molecule 1

$$$$
8W31_ligand0.pdb
 OpenBabel06042612053D

 67 72  0  0  1  0  0  0  0  0999 V2000
  -22.8810   40.9840  -40.6610 C   0  0  0  0  0  0  0  0  0  0  0  0
  -24.1370   40.4160  -40.5510 C   0  0  0  0  0  0  0  0  0  0  0  0
  -24.2810   39.0630  -40.2660 C   0  0  0  0  0  0  0  0  0  0  0  0
  -25.6260   38.4420  -40.2290 C   0  0  0  0  0  0  0  0  0  0  0  0
  -26.8330   39.0490  -39.9910 C   0  0  0  0  0  0  0  0  0  0  0  0
  -29.5440   39.7240  -39.8450 C   0  0  2  0  0  0  0  0  0  0  0  0
  -29.8340   41.8840  -41.1100 C   0  0  0  0  0  0  0  0  0  0  0  0
  -30.9450   43.8910  -40.3860 C   0  0  0  0  0  0  0  0  0  0  0  0
  -28.8400   42.6690  -41.6750 C   0  0  0  0  0  0  0  0  0  0  0  0
  -28.7640   41.0610  -37.9170 C   0  0  0  0  0  0  0  0  0  0  0  0
  -23.1330   38.2950  -40.0870 C   0  0  0  0  0  0  0  0  0  0  0  0
  -25.9420   37.0990  -40.4760 C   0  0  0  0  0  0  0  0  0  0  0  0
  -29.2170   38.2470  -39.9500 C   0  0  0  0  0  0  0  0  0  0  0  0
  -29.7780   40.3800  -41.2060 C   0  0  0  0  0  0  0  0  0  0  0  0
  -30.8870   42.5120  -40.4640 C   0  0  0  0  0  0  0  0  0  0  0  0
  -29.9520   44.6600  -40.9520 C   0  0  0  0  0  0  0  0  0  0  0  0
  -28.9000   44.0480  -41.5960 C   0  0  0  0  0  0  0  0  0  0  0  0
  -20.3960   40.8610  -40.5940 C   0  0  0  0  0  0  0  0  0  0  0  0
  -30.1510   41.0020  -37.3760 C   0  0  0  0  0  0  0  0  0  0  0  0
  -27.1840   40.4600  -39.6620 C   0  0  0  0  0  0  0  0  0  0  0  0
  -21.8780   38.8640  -40.1960 C   0  0  0  0  0  0  0  0  0  0  0  0
  -19.9130   40.3620  -38.2390 C   0  0  0  0  0  0  0  0  0  0  0  0
  -21.7350   40.2170  -40.4840 C   0  0  0  0  0  0  0  0  0  0  0  0
  -19.0160   39.5040  -37.6060 C   0  0  0  0  0  0  0  0  0  0  0  0
  -19.3220   39.0490  -36.3310 C   0  0  0  0  0  0  0  0  0  0  0  0
  -20.4890   39.4400  -35.7040 C   0  0  0  0  0  0  0  0  0  0  0  0
  -21.3640   40.2870  -36.3390 C   0  0  0  0  0  0  0  0  0  0  0  0
  -21.0860   40.7550  -37.6090 C   0  0  0  0  0  0  0  0  0  0  0  0
  -17.7490   39.1060  -38.3150 C   0  0  0  0  0  0  0  0  0  0  0  0
  -17.2100   40.1590  -39.2670 C   0  0  0  0  0  0  0  0  0  0  0  0
  -18.1790   41.2800  -39.5860 C   0  0  0  0  0  0  0  0  0  0  0  0
  -27.2400   36.8760  -40.4010 N   0  0  0  0  0  0  0  0  0  0  0  0
  -28.5210   40.4470  -39.0850 N   0  0  0  0  0  0  0  0  0  0  0  0
  -19.5710   40.8190  -39.5120 N   0  0  0  0  0  0  0  0  0  0  0  0
  -27.7750   38.0900  -40.1010 N   0  0  0  0  0  0  0  0  0  0  0  0
  -20.0750   41.4240  -41.6190 O   0  0  0  0  0  0  0  0  0  0  0  0
  -27.8840   41.6240  -37.3360 O   0  0  0  0  0  0  0  0  0  0  0  0
  -22.8030   42.0240  -40.9390 H   0  0  0  0  0  0  0  0  0  0  0  0
  -24.9800   41.0510  -40.7560 H   0  0  0  0  0  0  0  0  0  0  0  0
  -30.5280   39.7620  -39.3990 H   0  0  0  0  0  0  0  0  0  0  0  0
  -31.7170   44.3630  -39.8620 H   0  0  0  0  0  0  0  0  0  0  0  0
  -28.0170   42.2140  -42.2050 H   0  0  0  0  0  0  0  0  0  0  0  0
  -23.2160   37.2400  -39.8770 H   0  0  0  0  0  0  0  0  0  0  0  0
  -25.2840   36.2770  -40.7180 H   0  0  0  0  0  0  0  0  0  0  0  0
  -29.7360   37.7680  -40.7810 H   0  0  0  0  0  0  0  0  0  0  0  0
  -29.5110   37.7330  -39.0390 H   0  0  0  0  0  0  0  0  0  0  0  0
  -30.7090   40.0160  -41.6440 H   0  0  0  0  0  0  0  0  0  0  0  0
  -28.9890   40.0950  -41.9040 H   0  0  0  0  0  0  0  0  0  0  0  0
  -31.8190   42.1130  -40.7840 H   0  0  0  0  0  0  0  0  0  0  0  0
  -29.9930   45.7370  -40.8790 H   0  0  0  0  0  0  0  0  0  0  0  0
  -28.1210   44.6480  -42.0410 H   0  0  0  0  0  0  0  0  0  0  0  0
  -30.1830   41.3400  -36.3490 H   0  0  0  0  0  0  0  0  0  0  0  0
  -30.7900   41.6870  -37.9190 H   0  0  0  0  0  0  0  0  0  0  0  0
  -30.5680   39.9950  -37.3450 H   0  0  0  0  0  0  0  0  0  0  0  0
  -27.1360   41.0820  -40.5480 H   0  0  0  0  0  0  0  0  0  0  0  0
  -26.4190   40.8140  -38.9780 H   0  0  0  0  0  0  0  0  0  0  0  0
  -20.9990   38.2670  -40.0170 H   0  0  0  0  0  0  0  0  0  0  0  0
  -18.6440   38.3830  -35.8180 H   0  0  0  0  0  0  0  0  0  0  0  0
  -20.7180   39.0730  -34.7140 H   0  0  0  0  0  0  0  0  0  0  0  0
  -22.2850   40.5660  -35.8500 H   0  0  0  0  0  0  0  0  0  0  0  0
  -21.8250   41.3480  -38.0920 H   0  0  0  0  0  0  0  0  0  0  0  0
  -17.9750   38.1990  -38.8760 H   0  0  0  0  0  0  0  0  0  0  0  0
  -16.9840   38.8310  -37.5870 H   0  0  0  0  0  0  0  0  0  0  0  0
  -16.8190   39.6690  -40.1610 H   0  0  0  0  0  0  0  0  0  0  0  0
  -16.3430   40.6250  -38.7980 H   0  0  0  0  0  0  0  0  0  0  0  0
  -17.9650   41.2480  -40.6540 H   0  0  0  0  0  0  0  0  0  0  0  0
  -17.9240   42.3190  -39.6370 H   0  0  0  0  0  0  0  0  0  0  0  0
  1  2  2  0  0  0  0
  1 23  1  0  0  0  0
  1 38  1  0  0  0  0
  2  3  1  0  0  0  0
  2 39  1  0  0  0  0
  3  4  1  0  0  0  0
  3 11  2  0  0  0  0
  4  5  2  0  0  0  0
  4 12  1  0  0  0  0
  5 20  1  0  0  0  0
  5 35  1  0  0  0  0
  6 13  1  0  0  0  0
  6 14  1  0  0  0  0
  6 33  1  0  0  0  0
  6 40  1  1  0  0  0
  7  9  2  0  0  0  0
  7 14  1  0  0  0  0
  7 15  1  0  0  0  0
  8 15  2  0  0  0  0
  8 16  1  0  0  0  0
  8 41  1  0  0  0  0
  9 17  1  0  0  0  0
  9 42  1  0  0  0  0
 10 19  1  0  0  0  0
 10 33  1  0  0  0  0
 10 37  2  0  0  0  0
 11 21  1  0  0  0  0
 11 43  1  0  0  0  0
 12 32  2  0  0  0  0
 12 44  1  0  0  0  0
 13 35  1  0  0  0  0
 13 45  1  0  0  0  0
 13 46  1  0  0  0  0
 14 47  1  0  0  0  0
 14 48  1  0  0  0  0
 15 49  1  0  0  0  0
 16 17  2  0  0  0  0
 16 50  1  0  0  0  0
 17 51  1  0  0  0  0
 18 23  1  0  0  0  0
 18 34  1  0  0  0  0
 18 36  2  0  0  0  0
 19 52  1  0  0  0  0
 19 53  1  0  0  0  0
 19 54  1  0  0  0  0
 20 33  1  0  0  0  0
 20 55  1  0  0  0  0
 20 56  1  0  0  0  0
 21 23  2  0  0  0  0
 21 57  1  0  0  0  0
 22 24  1  0  0  0  0
 22 28  2  0  0  0  0
 22 34  1  0  0  0  0
 24 25  2  0  0  0  0
 24 29  1  0  0  0  0
 25 26  1  0  0  0  0
 25 58  1  0  0  0  0
 26 27  2  0  0  0  0
 26 59  1  0  0  0  0
 27 28  1  0  0  0  0
 27 60  1  0  0  0  0
 28 61  1  0  0  0  0
 29 30  1  0  0  0  0
 29 62  1  0  0  0  0
 29 63  1  0  0  0  0
 30 31  1  0  0  0  0
 30 64  1  0  0  0  0
 30 65  1  0  0  0  0
 31 34  1  0  0  0  0
 31 66  1  0  0  0  0
 31 67  1  0  0  0  0
 32 35  1  0  0  0  0
M  END
>  <COMPND>
    title: molecule 1

$$$$
9BGH_ligand0.pdb
 OpenBabel06042612053D

123132  0  0  1  0  0  0  0  0999 V2000
   34.2570   28.4440   30.4610 C   0  0  0  0  0  0  0  0  0  0  0  0
   35.2320   19.2600   33.3300 C   0  0  1  0  0  0  0  0  0  0  0  0
   35.5990   18.0950   34.1900 C   0  0  0  0  0  0  0  0  0  0  0  0
   37.6310   19.0750   33.4680 C   0  0  0  0  0  0  0  0  0  0  0  0
   33.7830   25.2610   34.1700 C   0  0  0  0  0  0  0  0  0  0  0  0
   32.2580   25.1990   34.1000 C   0  0  0  0  0  0  0  0  0  0  0  0
   29.9890   25.6450   33.8430 C   0  0  0  0  0  0  0  0  0  0  0  0
   29.9400   24.3110   34.0990 C   0  0  0  0  0  0  0  0  0  0  0  0
   28.8940   26.5210   33.4890 C   0  0  0  0  0  0  0  0  0  0  0  0
   29.1060   27.6790   32.7430 C   0  0  0  0  0  0  0  0  0  0  0  0
   28.0660   28.5710   32.2810 C   0  0  0  0  0  0  0  0  0  0  0  0
   33.3120   27.3680   31.0780 C   0  0  1  0  0  0  0  0  0  0  0  0
   26.7300   28.1830   32.5550 C   0  0  0  0  0  0  0  0  0  0  0  0
   26.4890   26.9700   33.2820 C   0  0  0  0  0  0  0  0  0  0  0  0
   27.5210   26.1550   33.7140 C   0  0  0  0  0  0  0  0  0  0  0  0
   24.4480   29.1220   32.1790 C   0  0  0  0  0  0  0  0  0  0  0  0
   24.0780   29.8860   33.4760 C   0  0  0  0  0  0  0  0  0  0  0  0
   26.6390   30.1920   31.4190 C   0  0  0  0  0  0  0  0  0  0  0  0
   26.0340   31.4000   30.8360 C   0  0  0  0  0  0  0  0  0  0  0  0
   25.2160   31.4150   29.6730 C   0  0  0  0  0  0  0  0  0  0  0  0
   24.8760   30.0520   28.8960 C   0  0  2  0  0  0  0  0  0  0  0  0
   23.2470   28.2350   28.8330 C   0  0  0  0  0  0  0  0  0  0  0  0
   36.1730   26.8380   30.8200 C   0  0  0  0  0  0  0  0  0  0  0  0
   25.1530   30.1280   27.3550 C   0  0  0  0  0  0  0  0  0  0  0  0
   25.0170   33.8010   29.7720 C   0  0  0  0  0  0  0  0  0  0  0  0
   25.8000   33.9510   30.9150 C   0  0  0  0  0  0  0  0  0  0  0  0
   27.1150   35.2500   32.6950 C   0  0  0  0  0  0  0  0  0  0  0  0
   27.8420   36.6150   32.7250 C   0  0  0  0  0  0  0  0  0  0  0  0
   27.7510   38.8970   32.9660 C   0  0  0  0  0  0  0  0  0  0  0  0
   27.6740   39.8630   34.1280 C   0  0  0  0  0  0  0  0  0  0  0  0
   26.9950   40.1970   32.8000 C   0  0  0  0  0  0  0  0  0  0  0  0
   26.1110   37.6880   31.5310 C   0  0  0  0  0  0  0  0  0  0  0  0
   25.2420   36.3830   31.4670 C   0  0  0  0  0  0  0  0  0  0  0  0
   35.6640   28.2830   30.9860 C   0  0  0  0  0  0  0  0  0  0  0  0
   26.2780   32.6850   31.4230 C   0  0  0  0  0  0  0  0  0  0  0  0
   27.9940   29.8680   31.5810 C   0  0  0  0  0  0  0  0  0  0  0  0
   29.2290   30.6750   31.0800 C   0  0  0  0  0  0  0  0  0  0  0  0
   29.7790   30.3230   29.6690 C   0  0  0  0  0  0  0  0  0  0  0  0
   31.0680   31.1520   29.3240 C   0  0  0  0  0  0  0  0  0  0  0  0
   28.6790   30.5580   28.6140 C   0  0  0  0  0  0  0  0  0  0  0  0
   30.1450   28.8200   29.6020 C   0  0  0  0  0  0  0  0  0  0  0  0
   32.0720   27.4180   30.2260 C   0  0  0  0  0  0  0  0  0  0  0  0
   35.5020   25.1430   32.4970 C   0  0  0  0  0  0  0  0  0  0  0  0
   34.3590   24.2930   33.1460 C   0  0  1  0  0  0  0  0  0  0  0  0
   34.9610   21.9340   32.9910 C   0  0  0  0  0  0  0  0  0  0  0  0
   35.5960   20.7340   33.5370 C   0  0  2  0  0  0  0  0  0  0  0  0
   36.5130   19.8040   32.7730 C   0  0  2  0  0  0  0  0  0  0  0  0
   33.8710   26.0260   30.9640 N   0  0  0  0  0  0  0  0  0  0  0  0
   35.1970   26.0000   31.4480 N   0  0  0  0  0  0  0  0  0  0  0  0
   34.9120   23.0850   33.7080 N   0  0  0  0  0  0  0  0  0  0  0  0
   31.3620   26.0920   33.8550 N   0  0  0  0  0  0  0  0  0  0  0  0
   25.8880   29.1460   32.0470 N   0  0  0  0  0  0  0  0  0  0  0  0
   24.7340   32.5880   29.2180 N   0  0  0  0  0  0  0  0  0  0  0  0
   26.1330   35.1810   31.5520 N   0  0  0  0  0  0  0  0  0  0  0  0
   26.9470   37.7400   32.7160 N   0  3  1  0  0  0  0  0  0  0  0  0
   36.6360   25.0520   32.9570 O   0  0  0  0  0  0  0  0  0  0  0  0
   34.4540   21.9270   31.8680 O   0  0  0  0  0  0  0  0  0  0  0  0
   36.9530   18.4410   34.5600 O   0  0  0  0  0  0  0  0  0  0  0  0
   23.5460   29.6170   29.0860 O   0  0  0  0  0  0  0  0  0  0  0  0
   31.3270   28.5550   30.4160 O   0  0  0  0  0  0  0  0  0  0  0  0
   31.7570   26.5260   29.4250 O   0  0  0  0  0  0  0  0  0  0  0  0
   31.4890   23.5860   34.3800 S   0  0  0  0  0  0  0  0  0  0  0  0
   33.8940   29.4490   30.6830 H   0  0  0  0  0  0  0  0  0  0  0  0
   34.2880   28.3570   29.3750 H   0  0  0  0  0  0  0  0  0  0  0  0
   34.4290   19.0640   32.6230 H   0  0  0  0  0  0  0  0  0  0  0  0
   35.5660   17.1700   33.6290 H   0  0  0  0  0  0  0  0  0  0  0  0
   34.9520   18.0180   35.0630 H   0  0  0  0  0  0  0  0  0  0  0  0
   38.4030   19.7660   33.8000 H   0  0  0  0  0  0  0  0  0  0  0  0
   38.0660   18.3250   32.8090 H   0  0  0  0  0  0  0  0  0  0  0  0
   34.0990   24.9980   35.1800 H   0  0  0  0  0  0  0  0  0  0  0  0
   34.0620   26.3100   34.0350 H   0  0  0  0  0  0  0  0  0  0  0  0
   29.0680   23.6800   34.1330 H   0  0  0  0  0  0  0  0  0  0  0  0
   30.1210   27.9690   32.5300 H   0  0  0  0  0  0  0  0  0  0  0  0
   33.0870   27.5910   32.1200 H   0  0  0  0  0  0  0  0  0  0  0  0
   25.4730   26.6790   33.5020 H   0  0  0  0  0  0  0  0  0  0  0  0
   27.3030   25.2690   34.2740 H   0  0  0  0  0  0  0  0  0  0  0  0
   23.9710   29.6250   31.3530 H   0  0  0  0  0  0  0  0  0  0  0  0
   24.0880   28.0930   32.1970 H   0  0  0  0  0  0  0  0  0  0  0  0
   22.9980   29.9020   33.6200 H   0  0  0  0  0  0  0  0  0  0  0  0
   24.5220   29.4100   34.3500 H   0  0  0  0  0  0  0  0  0  0  0  0
   24.4210   30.9200   33.4350 H   0  0  0  0  0  0  0  0  0  0  0  0
   25.5340   29.2770   29.2870 H   0  0  0  0  0  0  0  0  0  0  0  0
   22.1880   28.0480   29.0020 H   0  0  0  0  0  0  0  0  0  0  0  0
   23.4790   27.9430   27.8120 H   0  0  0  0  0  0  0  0  0  0  0  0
   23.8060   27.5990   29.5170 H   0  0  0  0  0  0  0  0  0  0  0  0
   37.1700   26.7430   31.2460 H   0  0  0  0  0  0  0  0  0  0  0  0
   36.2490   26.5730   29.7640 H   0  0  0  0  0  0  0  0  0  0  0  0
   25.2420   29.1440   26.9340 H   0  0  0  0  0  0  0  0  0  0  0  0
   24.3700   30.6760   26.8310 H   0  0  0  0  0  0  0  0  0  0  0  0
   26.0970   30.6370   27.1620 H   0  0  0  0  0  0  0  0  0  0  0  0
   24.5810   34.6520   29.2710 H   0  0  0  0  0  0  0  0  0  0  0  0
   26.5820   35.0780   33.6310 H   0  0  0  0  0  0  0  0  0  0  0  0
   27.8750   34.4750   32.6050 H   0  0  0  0  0  0  0  0  0  0  0  0
   28.5040   36.6660   31.8600 H   0  0  0  0  0  0  0  0  0  0  0  0
   28.4790   36.6420   33.6120 H   0  0  0  0  0  0  0  0  0  0  0  0
   28.6890   38.8670   32.4100 H   0  0  0  0  0  0  0  0  0  0  0  0
   28.5780   40.4130   34.3830 H   0  0  0  0  0  0  0  0  0  0  0  0
   27.0420   39.5860   34.9690 H   0  0  0  0  0  0  0  0  0  0  0  0
   25.9080   40.2220   32.8390 H   0  0  0  0  0  0  0  0  0  0  0  0
   27.4540   40.9680   32.1840 H   0  0  0  0  0  0  0  0  0  0  0  0
   25.4280   38.5350   31.5000 H   0  0  0  0  0  0  0  0  0  0  0  0
   26.7350   37.7650   30.6380 H   0  0  0  0  0  0  0  0  0  0  0  0
   24.6510   36.3800   30.5520 H   0  0  0  0  0  0  0  0  0  0  0  0
   24.5420   36.3670   32.3020 H   0  0  0  0  0  0  0  0  0  0  0  0
   35.7040   28.5700   32.0380 H   0  0  0  0  0  0  0  0  0  0  0  0
   36.2950   28.9740   30.4500 H   0  0  0  0  0  0  0  0  0  0  0  0
   26.8810   32.6740   32.3170 H   0  0  0  0  0  0  0  0  0  0  0  0
   30.0430   30.5370   31.7860 H   0  0  0  0  0  0  0  0  0  0  0  0
   29.0070   31.7420   31.1170 H   0  0  0  0  0  0  0  0  0  0  0  0
   31.5670   30.7500   28.4450 H   0  0  0  0  0  0  0  0  0  0  0  0
   30.8230   32.1880   29.1180 H   0  0  0  0  0  0  0  0  0  0  0  0
   31.7900   31.1400   30.1410 H   0  0  0  0  0  0  0  0  0  0  0  0
   29.0660   30.3990   27.6080 H   0  0  0  0  0  0  0  0  0  0  0  0
   27.8430   29.8740   28.7480 H   0  0  0  0  0  0  0  0  0  0  0  0
   28.2900   31.5750   28.6620 H   0  0  0  0  0  0  0  0  0  0  0  0
   30.3840   28.5700   28.5700 H   0  0  0  0  0  0  0  0  0  0  0  0
   29.3180   28.1770   29.9020 H   0  0  0  0  0  0  0  0  0  0  0  0
   33.5960   24.0580   32.4040 H   0  0  0  0  0  0  0  0  0  0  0  0
   35.9340   20.9340   34.5530 H   0  0  0  0  0  0  0  0  0  0  0  0
   36.5990   19.9550   31.7030 H   0  0  0  0  0  0  0  0  0  0  0  0
   33.3030   25.3610   31.4820 H   0  0  0  0  0  0  0  0  0  0  0  0
   35.3550   23.1320   34.6170 H   0  0  0  0  0  0  0  0  0  0  0  0
   26.3280   37.6410   33.5080 H   0  0  0  0  0  0  0  0  0  0  0  0
  1 12  1  0  0  0  0
  1 34  1  0  0  0  0
  1 63  1  0  0  0  0
  1 64  1  0  0  0  0
  2  3  1  0  0  0  0
  2 46  1  0  0  0  0
  2 47  1  0  0  0  0
  2 65  1  6  0  0  0
  3 58  1  0  0  0  0
  3 66  1  0  0  0  0
  3 67  1  0  0  0  0
  4 47  1  0  0  0  0
  4 58  1  0  0  0  0
  4 68  1  0  0  0  0
  4 69  1  0  0  0  0
  5  6  1  0  0  0  0
  5 44  1  0  0  0  0
  5 70  1  0  0  0  0
  5 71  1  0  0  0  0
  6 51  2  0  0  0  0
  6 62  1  0  0  0  0
  7  8  2  0  0  0  0
  7  9  1  0  0  0  0
  7 51  1  0  0  0  0
  8 62  1  0  0  0  0
  8 72  1  0  0  0  0
  9 10  1  0  0  0  0
  9 15  2  0  0  0  0
 10 11  2  0  0  0  0
 10 73  1  0  0  0  0
 11 13  1  0  0  0  0
 11 36  1  0  0  0  0
 12 42  1  0  0  0  0
 12 48  1  0  0  0  0
 12 74  1  1  0  0  0
 13 14  2  0  0  0  0
 13 52  1  0  0  0  0
 14 15  1  0  0  0  0
 14 75  1  0  0  0  0
 15 76  1  0  0  0  0
 16 17  1  0  0  0  0
 16 52  1  0  0  0  0
 16 77  1  0  0  0  0
 16 78  1  0  0  0  0
 17 79  1  0  0  0  0
 17 80  1  0  0  0  0
 17 81  1  0  0  0  0
 18 19  1  0  0  0  0
 18 36  2  0  0  0  0
 18 52  1  0  0  0  0
 19 20  2  0  0  0  0
 19 35  1  0  0  0  0
 20 21  1  0  0  0  0
 20 53  1  0  0  0  0
 21 24  1  0  0  0  0
 21 59  1  0  0  0  0
 21 82  1  1  0  0  0
 22 59  1  0  0  0  0
 22 83  1  0  0  0  0
 22 84  1  0  0  0  0
 22 85  1  0  0  0  0
 23 34  1  0  0  0  0
 23 49  1  0  0  0  0
 23 86  1  0  0  0  0
 23 87  1  0  0  0  0
 24 88  1  0  0  0  0
 24 89  1  0  0  0  0
 24 90  1  0  0  0  0
 25 26  1  0  0  0  0
 25 53  2  0  0  0  0
 25 91  1  0  0  0  0
 26 35  2  0  0  0  0
 26 54  1  0  0  0  0
 27 28  1  0  0  0  0
 27 54  1  0  0  0  0
 27 92  1  0  0  0  0
 27 93  1  0  0  0  0
 28 55  1  0  0  0  0
 28 94  1  0  0  0  0
 28 95  1  0  0  0  0
 29 30  1  0  0  0  0
 29 31  1  0  0  0  0
 29 55  1  0  0  0  0
 29 96  1  0  0  0  0
 30 31  1  0  0  0  0
 30 97  1  0  0  0  0
 30 98  1  0  0  0  0
 31 99  1  0  0  0  0
 31100  1  0  0  0  0
 32 33  1  0  0  0  0
 32 55  1  0  0  0  0
 32101  1  0  0  0  0
 32102  1  0  0  0  0
 33 54  1  0  0  0  0
 33103  1  0  0  0  0
 33104  1  0  0  0  0
 34105  1  0  0  0  0
 34106  1  0  0  0  0
 35107  1  0  0  0  0
 36 37  1  0  0  0  0
 37 38  1  0  0  0  0
 37108  1  0  0  0  0
 37109  1  0  0  0  0
 38 39  1  0  0  0  0
 38 40  1  0  0  0  0
 38 41  1  0  0  0  0
 39110  1  0  0  0  0
 39111  1  0  0  0  0
 39112  1  0  0  0  0
 40113  1  0  0  0  0
 40114  1  0  0  0  0
 40115  1  0  0  0  0
 41 60  1  0  0  0  0
 41116  1  0  0  0  0
 41117  1  0  0  0  0
 42 60  1  0  0  0  0
 42 61  2  0  0  0  0
 43 44  1  0  0  0  0
 43 49  1  0  0  0  0
 43 56  2  0  0  0  0
 44 50  1  0  0  0  0
 44118  1  6  0  0  0
 45 46  1  0  0  0  0
 45 50  1  0  0  0  0
 45 57  2  0  0  0  0
 46 47  1  0  0  0  0
 46119  1  1  0  0  0
 47120  1  6  0  0  0
 48 49  1  0  0  0  0
 48121  1  0  0  0  0
 50122  1  0  0  0  0
 55123  1  1  0  0  0
M  CHG  1  55   1
M  END
>  <COMPND>
    title: molecule 1

$$$$
9BHO_ligand0.pdb
 OpenBabel06042612053D

123132  0  0  1  0  0  0  0  0999 V2000
  -27.5580   29.0830  -13.1070 C   0  0  0  0  0  0  0  0  0  0  0  0
  -21.8710   26.7590   -5.8240 C   0  0  1  0  0  0  0  0  0  0  0  0
  -21.5160   26.2790   -4.4310 C   0  0  0  0  0  0  0  0  0  0  0  0
  -22.4520   28.3470   -4.1510 C   0  0  0  0  0  0  0  0  0  0  0  0
  -27.0340   25.9910   -9.3320 C   0  0  0  0  0  0  0  0  0  0  0  0
  -26.6310   24.7600  -10.1460 C   0  0  0  0  0  0  0  0  0  0  0  0
  -26.3200   23.0930  -11.7680 C   0  0  0  0  0  0  0  0  0  0  0  0
  -25.4400   22.6610  -10.8370 C   0  0  0  0  0  0  0  0  0  0  0  0
  -26.5480   22.5490  -13.0680 C   0  0  0  0  0  0  0  0  0  0  0  0
  -27.1170   23.3350  -14.0480 C   0  0  0  0  0  0  0  0  0  0  0  0
  -27.3420   22.9170  -15.4070 C   0  0  0  0  0  0  0  0  0  0  0  0
  -26.8480   27.7890  -12.6300 C   0  0  1  0  0  0  0  0  0  0  0  0
  -26.9510   21.6170  -15.7760 C   0  0  0  0  0  0  0  0  0  0  0  0
  -26.3510   20.7940  -14.7790 C   0  0  0  0  0  0  0  0  0  0  0  0
  -26.1370   21.2470  -13.4810 C   0  0  0  0  0  0  0  0  0  0  0  0
  -26.9960   20.1570  -17.8640 C   0  0  0  0  0  0  0  0  0  0  0  0
  -28.1340   19.1410  -17.6200 C   0  0  0  0  0  0  0  0  0  0  0  0
  -27.8630   22.5980  -17.6450 C   0  0  0  0  0  0  0  0  0  0  0  0
  -28.3390   22.7590  -19.0180 C   0  0  0  0  0  0  0  0  0  0  0  0
  -27.5020   22.6970  -20.1880 C   0  0  0  0  0  0  0  0  0  0  0  0
  -25.9250   22.4520  -20.1580 C   0  0  2  0  0  0  0  0  0  0  0  0
  -24.1350   20.8310  -20.3840 C   0  0  0  0  0  0  0  0  0  0  0  0
  -26.8570   30.2190  -10.9450 C   0  0  0  0  0  0  0  0  0  0  0  0
  -25.1530   23.4970  -20.9950 C   0  0  0  0  0  0  0  0  0  0  0  0
  -29.3490   23.0950  -21.5960 C   0  0  0  0  0  0  0  0  0  0  0  0
  -30.2850   23.1690  -20.5770 C   0  0  0  0  0  0  0  0  0  0  0  0
  -32.4780   22.7520  -21.7810 C   0  0  0  0  0  0  0  0  0  0  0  0
  -33.7090   23.6190  -22.1090 C   0  0  0  0  0  0  0  0  0  0  0  0
  -35.7240   24.5580  -21.3040 C   0  0  0  0  0  0  0  0  0  0  0  0
  -37.0360   24.4700  -20.5760 C   0  0  0  0  0  0  0  0  0  0  0  0
  -36.8150   23.6980  -21.8740 C   0  0  0  0  0  0  0  0  0  0  0  0
  -33.8070   24.3550  -19.8220 C   0  0  0  0  0  0  0  0  0  0  0  0
  -32.4540   23.6670  -19.5280 C   0  0  0  0  0  0  0  0  0  0  0  0
  -27.9830   30.0100  -11.9730 C   0  0  0  0  0  0  0  0  0  0  0  0
  -29.6960   22.9930  -19.2750 C   0  0  0  0  0  0  0  0  0  0  0  0
  -27.9330   23.5310  -16.6050 C   0  0  0  0  0  0  0  0  0  0  0  0
  -28.5240   24.9240  -16.6600 C   0  0  0  0  0  0  0  0  0  0  0  0
  -27.6290   26.1620  -17.0950 C   0  0  0  0  0  0  0  0  0  0  0  0
  -28.4280   27.4870  -17.0780 C   0  0  0  0  0  0  0  0  0  0  0  0
  -27.0160   25.9240  -18.4890 C   0  0  0  0  0  0  0  0  0  0  0  0
  -26.4930   26.3870  -16.1040 C   0  0  0  0  0  0  0  0  0  0  0  0
  -26.1610   27.1880  -13.8690 C   0  0  0  0  0  0  0  0  0  0  0  0
  -26.3620   28.3410   -9.3600 C   0  0  0  0  0  0  0  0  0  0  0  0
  -25.8220   26.9090   -9.1450 C   0  0  1  0  0  0  0  0  0  0  0  0
  -23.8510   27.0500   -7.6870 C   0  0  0  0  0  0  0  0  0  0  0  0
  -23.2970   27.0040   -6.3190 C   0  0  2  0  0  0  0  0  0  0  0  0
  -22.4920   28.1060   -5.6560 C   0  0  2  0  0  0  0  0  0  0  0  0
  -25.7930   28.0850  -11.6510 N   0  0  0  0  0  0  0  0  0  0  0  0
  -26.2910   28.9080  -10.6450 N   0  0  0  0  0  0  0  0  0  0  0  0
  -25.1950   26.8340   -7.9000 N   0  0  0  0  0  0  0  0  0  0  0  0
  -26.9370   24.3550  -11.3470 N   0  0  0  0  0  0  0  0  0  0  0  0
  -27.2400   21.4260  -17.1420 N   0  0  0  0  0  0  0  0  0  0  0  0
  -28.0450   22.8540  -21.4040 N   0  0  0  0  0  0  0  0  0  0  0  0
  -31.6700   23.4260  -20.7350 N   0  0  0  0  0  0  0  0  0  0  0  0
  -34.5430   23.8370  -20.9400 N   0  3  2  0  0  0  0  0  0  0  0  0
  -26.8070   28.9500   -8.4060 O   0  0  0  0  0  0  0  0  0  0  0  0
  -23.1090   27.2870   -8.6310 O   0  0  0  0  0  0  0  0  0  0  0  0
  -22.4360   27.0370   -3.6200 O   0  0  0  0  0  0  0  0  0  0  0  0
  -25.5380   21.1430  -20.5190 O   0  0  0  0  0  0  0  0  0  0  0  0
  -26.9580   26.5810  -14.7730 O   0  0  0  0  0  0  0  0  0  0  0  0
  -24.9500   27.2550  -14.0410 O   0  0  0  0  0  0  0  0  0  0  0  0
  -25.3900   23.6730   -9.4180 S   0  0  0  0  0  0  0  0  0  0  0  0
  -28.4280   28.8290  -13.7140 H   0  0  0  0  0  0  0  0  0  0  0  0
  -26.8940   29.6490  -13.7610 H   0  0  0  0  0  0  0  0  0  0  0  0
  -21.0990   26.6320   -6.5790 H   0  0  0  0  0  0  0  0  0  0  0  0
  -20.4810   26.5270   -4.1950 H   0  0  0  0  0  0  0  0  0  0  0  0
  -21.6740   25.2070   -4.3170 H   0  0  0  0  0  0  0  0  0  0  0  0
  -23.3260   28.9200   -3.8600 H   0  0  0  0  0  0  0  0  0  0  0  0
  -21.5490   28.8950   -3.8760 H   0  0  0  0  0  0  0  0  0  0  0  0
  -27.4360   25.6680   -8.3710 H   0  0  0  0  0  0  0  0  0  0  0  0
  -27.8640   26.4640   -9.8610 H   0  0  0  0  0  0  0  0  0  0  0  0
  -24.8030   21.7890  -10.8800 H   0  0  0  0  0  0  0  0  0  0  0  0
  -27.4370   24.3330  -13.8020 H   0  0  0  0  0  0  0  0  0  0  0  0
  -27.5630   27.0880  -12.2010 H   0  0  0  0  0  0  0  0  0  0  0  0
  -26.0220   19.8030  -15.0500 H   0  0  0  0  0  0  0  0  0  0  0  0
  -25.6510   20.6130  -12.7620 H   0  0  0  0  0  0  0  0  0  0  0  0
  -26.9850   20.3380  -18.9280 H   0  0  0  0  0  0  0  0  0  0  0  0
  -26.0230   19.7520  -17.5820 H   0  0  0  0  0  0  0  0  0  0  0  0
  -28.0210   18.2610  -18.2530 H   0  0  0  0  0  0  0  0  0  0  0  0
  -28.1390   18.8050  -16.5830 H   0  0  0  0  0  0  0  0  0  0  0  0
  -29.1060   19.5840  -17.8220 H   0  0  0  0  0  0  0  0  0  0  0  0
  -25.6080   22.5940  -19.1250 H   0  0  0  0  0  0  0  0  0  0  0  0
  -23.9910   19.7580  -20.5130 H   0  0  0  0  0  0  0  0  0  0  0  0
  -23.5590   21.3210  -21.1510 H   0  0  0  0  0  0  0  0  0  0  0  0
  -23.7520   21.1050  -19.4040 H   0  0  0  0  0  0  0  0  0  0  0  0
  -27.2370   30.7360  -10.0660 H   0  0  0  0  0  0  0  0  0  0  0  0
  -26.0710   30.8450  -11.3680 H   0  0  0  0  0  0  0  0  0  0  0  0
  -25.3800   24.5030  -20.6490 H   0  0  0  0  0  0  0  0  0  0  0  0
  -24.0920   23.3640  -20.9310 H   0  0  0  0  0  0  0  0  0  0  0  0
  -25.4250   23.4430  -22.0490 H   0  0  0  0  0  0  0  0  0  0  0  0
  -29.6510   23.2200  -22.6250 H   0  0  0  0  0  0  0  0  0  0  0  0
  -31.8810   22.6010  -22.6800 H   0  0  0  0  0  0  0  0  0  0  0  0
  -32.7820   21.7650  -21.4300 H   0  0  0  0  0  0  0  0  0  0  0  0
  -34.2880   23.1280  -22.8920 H   0  0  0  0  0  0  0  0  0  0  0  0
  -33.3820   24.5780  -22.5150 H   0  0  0  0  0  0  0  0  0  0  0  0
  -35.4910   25.5000  -21.7970 H   0  0  0  0  0  0  0  0  0  0  0  0
  -37.6970   25.3330  -20.6150 H   0  0  0  0  0  0  0  0  0  0  0  0
  -37.0590   23.9060  -19.6460 H   0  0  0  0  0  0  0  0  0  0  0  0
  -36.7250   22.6160  -21.7940 H   0  0  0  0  0  0  0  0  0  0  0  0
  -37.3240   24.0610  -22.7650 H   0  0  0  0  0  0  0  0  0  0  0  0
  -33.5970   25.3970  -20.0500 H   0  0  0  0  0  0  0  0  0  0  0  0
  -34.4330   24.3490  -18.9290 H   0  0  0  0  0  0  0  0  0  0  0  0
  -32.6260   22.7140  -19.0240 H   0  0  0  0  0  0  0  0  0  0  0  0
  -31.9120   24.3100  -18.8340 H   0  0  0  0  0  0  0  0  0  0  0  0
  -28.8480   29.5790  -11.4660 H   0  0  0  0  0  0  0  0  0  0  0  0
  -28.3110   30.9450  -12.4060 H   0  0  0  0  0  0  0  0  0  0  0  0
  -30.3240   23.0080  -18.3980 H   0  0  0  0  0  0  0  0  0  0  0  0
  -28.9450   25.1500  -15.6810 H   0  0  0  0  0  0  0  0  0  0  0  0
  -29.3960   24.9100  -17.3120 H   0  0  0  0  0  0  0  0  0  0  0  0
  -27.7770   28.3510  -17.1930 H   0  0  0  0  0  0  0  0  0  0  0  0
  -29.1450   27.5140  -17.8950 H   0  0  0  0  0  0  0  0  0  0  0  0
  -28.9830   27.6170  -16.1480 H   0  0  0  0  0  0  0  0  0  0  0  0
  -26.4410   26.7900  -18.8190 H   0  0  0  0  0  0  0  0  0  0  0  0
  -26.3430   25.0670  -18.4870 H   0  0  0  0  0  0  0  0  0  0  0  0
  -27.7890   25.7410  -19.2360 H   0  0  0  0  0  0  0  0  0  0  0  0
  -25.9090   27.2530  -16.4180 H   0  0  0  0  0  0  0  0  0  0  0  0
  -25.8150   25.5330  -16.1100 H   0  0  0  0  0  0  0  0  0  0  0  0
  -25.0770   26.6430   -9.8940 H   0  0  0  0  0  0  0  0  0  0  0  0
  -24.0420   26.5690   -5.6540 H   0  0  0  0  0  0  0  0  0  0  0  0
  -22.1690   28.9230   -6.2910 H   0  0  0  0  0  0  0  0  0  0  0  0
  -25.4380   27.2230  -11.2440 H   0  0  0  0  0  0  0  0  0  0  0  0
  -25.7890   26.6850   -7.0930 H   0  0  0  0  0  0  0  0  0  0  0  0
  -34.8530   22.9200  -20.6520 H   0  0  0  0  0  0  0  0  0  0  0  0
  1 12  1  0  0  0  0
  1 34  1  0  0  0  0
  1 63  1  0  0  0  0
  1 64  1  0  0  0  0
  2  3  1  0  0  0  0
  2 46  1  0  0  0  0
  2 47  1  0  0  0  0
  2 65  1  6  0  0  0
  3 58  1  0  0  0  0
  3 66  1  0  0  0  0
  3 67  1  0  0  0  0
  4 47  1  0  0  0  0
  4 58  1  0  0  0  0
  4 68  1  0  0  0  0
  4 69  1  0  0  0  0
  5  6  1  0  0  0  0
  5 44  1  0  0  0  0
  5 70  1  0  0  0  0
  5 71  1  0  0  0  0
  6 51  2  0  0  0  0
  6 62  1  0  0  0  0
  7  8  2  0  0  0  0
  7  9  1  0  0  0  0
  7 51  1  0  0  0  0
  8 62  1  0  0  0  0
  8 72  1  0  0  0  0
  9 10  1  0  0  0  0
  9 15  2  0  0  0  0
 10 11  2  0  0  0  0
 10 73  1  0  0  0  0
 11 13  1  0  0  0  0
 11 36  1  0  0  0  0
 12 42  1  0  0  0  0
 12 48  1  0  0  0  0
 12 74  1  1  0  0  0
 13 14  2  0  0  0  0
 13 52  1  0  0  0  0
 14 15  1  0  0  0  0
 14 75  1  0  0  0  0
 15 76  1  0  0  0  0
 16 17  1  0  0  0  0
 16 52  1  0  0  0  0
 16 77  1  0  0  0  0
 16 78  1  0  0  0  0
 17 79  1  0  0  0  0
 17 80  1  0  0  0  0
 17 81  1  0  0  0  0
 18 19  1  0  0  0  0
 18 36  2  0  0  0  0
 18 52  1  0  0  0  0
 19 20  2  0  0  0  0
 19 35  1  0  0  0  0
 20 21  1  0  0  0  0
 20 53  1  0  0  0  0
 21 24  1  0  0  0  0
 21 59  1  0  0  0  0
 21 82  1  1  0  0  0
 22 59  1  0  0  0  0
 22 83  1  0  0  0  0
 22 84  1  0  0  0  0
 22 85  1  0  0  0  0
 23 34  1  0  0  0  0
 23 49  1  0  0  0  0
 23 86  1  0  0  0  0
 23 87  1  0  0  0  0
 24 88  1  0  0  0  0
 24 89  1  0  0  0  0
 24 90  1  0  0  0  0
 25 26  1  0  0  0  0
 25 53  2  0  0  0  0
 25 91  1  0  0  0  0
 26 35  2  0  0  0  0
 26 54  1  0  0  0  0
 27 28  1  0  0  0  0
 27 54  1  0  0  0  0
 27 92  1  0  0  0  0
 27 93  1  0  0  0  0
 28 55  1  0  0  0  0
 28 94  1  0  0  0  0
 28 95  1  0  0  0  0
 29 30  1  0  0  0  0
 29 31  1  0  0  0  0
 29 55  1  0  0  0  0
 29 96  1  0  0  0  0
 30 31  1  0  0  0  0
 30 97  1  0  0  0  0
 30 98  1  0  0  0  0
 31 99  1  0  0  0  0
 31100  1  0  0  0  0
 32 33  1  0  0  0  0
 32 55  1  0  0  0  0
 32101  1  0  0  0  0
 32102  1  0  0  0  0
 33 54  1  0  0  0  0
 33103  1  0  0  0  0
 33104  1  0  0  0  0
 34105  1  0  0  0  0
 34106  1  0  0  0  0
 35107  1  0  0  0  0
 36 37  1  0  0  0  0
 37 38  1  0  0  0  0
 37108  1  0  0  0  0
 37109  1  0  0  0  0
 38 39  1  0  0  0  0
 38 40  1  0  0  0  0
 38 41  1  0  0  0  0
 39110  1  0  0  0  0
 39111  1  0  0  0  0
 39112  1  0  0  0  0
 40113  1  0  0  0  0
 40114  1  0  0  0  0
 40115  1  0  0  0  0
 41 60  1  0  0  0  0
 41116  1  0  0  0  0
 41117  1  0  0  0  0
 42 60  1  0  0  0  0
 42 61  2  0  0  0  0
 43 44  1  0  0  0  0
 43 49  1  0  0  0  0
 43 56  2  0  0  0  0
 44 50  1  0  0  0  0
 44118  1  6  0  0  0
 45 46  1  0  0  0  0
 45 50  1  0  0  0  0
 45 57  2  0  0  0  0
 46 47  1  0  0  0  0
 46119  1  1  0  0  0
 47120  1  6  0  0  0
 48 49  1  0  0  0  0
 48121  1  0  0  0  0
 50122  1  0  0  0  0
 55123  1  1  0  0  0
M  CHG  1  55   1
M  END
>  <COMPND>
    title: molecule 1

$$$$
9BHP_ligand0.pdb
 OpenBabel06042612053D

123132  0  0  1  0  0  0  0  0999 V2000
   27.6040   28.8920   13.0860 C   0  0  0  0  0  0  0  0  0  0  0  0
   21.7380   26.6240    5.6830 C   0  0  1  0  0  0  0  0  0  0  0  0
   21.2960   26.2210    4.2820 C   0  0  0  0  0  0  0  0  0  0  0  0
   22.4940   28.1680    4.0050 C   0  0  0  0  0  0  0  0  0  0  0  0
   27.1300   25.8850    9.1730 C   0  0  0  0  0  0  0  0  0  0  0  0
   26.6920   24.6340    9.9620 C   0  0  0  0  0  0  0  0  0  0  0  0
   26.2580   22.9400   11.5510 C   0  0  0  0  0  0  0  0  0  0  0  0
   25.4840   22.5130   10.5180 C   0  0  0  0  0  0  0  0  0  0  0  0
   26.4920   22.3400   12.9630 C   0  0  0  0  0  0  0  0  0  0  0  0
   27.0920   23.0940   13.9670 C   0  0  0  0  0  0  0  0  0  0  0  0
   27.3780   22.6790   15.3330 C   0  0  0  0  0  0  0  0  0  0  0  0
   26.8270   27.6350   12.6050 C   0  0  1  0  0  0  0  0  0  0  0  0
   27.0080   21.3680   15.6950 C   0  0  0  0  0  0  0  0  0  0  0  0
   26.3750   20.5540   14.6690 C   0  0  0  0  0  0  0  0  0  0  0  0
   26.1270   21.0100   13.3690 C   0  0  0  0  0  0  0  0  0  0  0  0
   27.1540   19.8800   17.8200 C   0  0  0  0  0  0  0  0  0  0  0  0
   28.2540   18.8170   17.5870 C   0  0  0  0  0  0  0  0  0  0  0  0
   27.9860   22.3690   17.5880 C   0  0  0  0  0  0  0  0  0  0  0  0
   28.5130   22.5480   19.0550 C   0  0  0  0  0  0  0  0  0  0  0  0
   27.6570   22.4980   20.2230 C   0  0  0  0  0  0  0  0  0  0  0  0
   26.0060   22.2310   20.1300 C   0  0  2  0  0  0  0  0  0  0  0  0
   24.2130   20.5650   20.1740 C   0  0  0  0  0  0  0  0  0  0  0  0
   26.9210   30.0660   10.8900 C   0  0  0  0  0  0  0  0  0  0  0  0
   25.1420   23.1920   20.9730 C   0  0  0  0  0  0  0  0  0  0  0  0
   29.5650   22.9160   21.6520 C   0  0  0  0  0  0  0  0  0  0  0  0
   30.5070   22.9970   20.6130 C   0  0  0  0  0  0  0  0  0  0  0  0
   32.8470   22.5460   21.6610 C   0  0  0  0  0  0  0  0  0  0  0  0
   34.1720   23.3560   21.8780 C   0  0  0  0  0  0  0  0  0  0  0  0
   35.9670   24.5970   21.0530 C   0  0  0  0  0  0  0  0  0  0  0  0
   37.3780   24.7750   20.5360 C   0  0  0  0  0  0  0  0  0  0  0  0
   37.1040   23.8320   21.6940 C   0  0  0  0  0  0  0  0  0  0  0  0
   34.0630   24.1200   19.5500 C   0  0  0  0  0  0  0  0  0  0  0  0
   32.7500   23.3020   19.3960 C   0  0  0  0  0  0  0  0  0  0  0  0
   28.0030   29.8780   11.9710 C   0  0  0  0  0  0  0  0  0  0  0  0
   29.8770   22.8040   19.3320 C   0  0  0  0  0  0  0  0  0  0  0  0
   27.9970   23.3150   16.5500 C   0  0  0  0  0  0  0  0  0  0  0  0
   28.5780   24.7560   16.6360 C   0  0  0  0  0  0  0  0  0  0  0  0
   27.6640   25.9720   17.1320 C   0  0  0  0  0  0  0  0  0  0  0  0
   28.4450   27.2940   17.3110 C   0  0  0  0  0  0  0  0  0  0  0  0
   26.9930   25.6180   18.4860 C   0  0  0  0  0  0  0  0  0  0  0  0
   26.5230   26.2140   16.1110 C   0  0  0  0  0  0  0  0  0  0  0  0
   26.1520   26.9710   13.8400 C   0  0  0  0  0  0  0  0  0  0  0  0
   26.4540   28.1780    9.2840 C   0  0  0  0  0  0  0  0  0  0  0  0
   25.8760   26.7890    9.0330 C   0  0  1  0  0  0  0  0  0  0  0  0
   23.7740   26.9050    7.5950 C   0  0  0  0  0  0  0  0  0  0  0  0
   23.1860   26.8430    6.2080 C   0  0  2  0  0  0  0  0  0  0  0  0
   22.4250   27.9500    5.5000 C   0  0  2  0  0  0  0  0  0  0  0  0
   25.7770   28.0090   11.5990 N   0  0  0  0  0  0  0  0  0  0  0  0
   26.3590   28.7590   10.5810 N   0  0  0  0  0  0  0  0  0  0  0  0
   25.1620   26.7330    7.7780 N   0  0  0  0  0  0  0  0  0  0  0  0
   26.9220   24.1920   11.1700 N   0  0  0  0  0  0  0  0  0  0  0  0
   27.3670   21.1600   17.0680 N   0  0  0  0  0  0  0  0  0  0  0  0
   28.2180   22.6790   21.4420 N   0  0  0  0  0  0  0  0  0  0  0  0
   31.9740   23.2570   20.6810 N   0  0  0  0  0  0  0  0  0  0  0  0
   34.9280   23.7040   20.6470 N   0  3  2  0  0  0  0  0  0  0  0  0
   26.9570   28.7480    8.3360 O   0  0  0  0  0  0  0  0  0  0  0  0
   23.0650   27.1260    8.5700 O   0  0  0  0  0  0  0  0  0  0  0  0
   22.2650   26.8780    3.4710 O   0  0  0  0  0  0  0  0  0  0  0  0
   25.5870   20.8900   20.3870 O   0  0  0  0  0  0  0  0  0  0  0  0
   26.9260   26.3190   14.7430 O   0  0  0  0  0  0  0  0  0  0  0  0
   24.9450   27.0040   14.0220 O   0  0  0  0  0  0  0  0  0  0  0  0
   25.5450   23.5620    9.1220 S   0  0  0  0  0  0  0  0  0  0  0  0
   28.4870   28.5980   13.6540 H   0  0  0  0  0  0  0  0  0  0  0  0
   26.9720   29.4440   13.7830 H   0  0  0  0  0  0  0  0  0  0  0  0
   20.9680   26.5390    6.4450 H   0  0  0  0  0  0  0  0  0  0  0  0
   20.3030   26.6070    4.0720 H   0  0  0  0  0  0  0  0  0  0  0  0
   21.3190   25.1400    4.1500 H   0  0  0  0  0  0  0  0  0  0  0  0
   23.4650   28.5640    3.7060 H   0  0  0  0  0  0  0  0  0  0  0  0
   21.7090   28.8580    3.6920 H   0  0  0  0  0  0  0  0  0  0  0  0
   27.5170   25.5880    8.1970 H   0  0  0  0  0  0  0  0  0  0  0  0
   27.9640   26.3310    9.7220 H   0  0  0  0  0  0  0  0  0  0  0  0
   24.8640   21.6290   10.4890 H   0  0  0  0  0  0  0  0  0  0  0  0
   27.3930   24.0960   13.7150 H   0  0  0  0  0  0  0  0  0  0  0  0
   27.5180   26.9310   12.1420 H   0  0  0  0  0  0  0  0  0  0  0  0
   26.0700   19.5560   14.9390 H   0  0  0  0  0  0  0  0  0  0  0  0
   25.6460   20.3650   12.6530 H   0  0  0  0  0  0  0  0  0  0  0  0
   27.1620   20.0920   18.8810 H   0  0  0  0  0  0  0  0  0  0  0  0
   26.1690   19.4840   17.5710 H   0  0  0  0  0  0  0  0  0  0  0  0
   28.0640   17.9200   18.1770 H   0  0  0  0  0  0  0  0  0  0  0  0
   28.3000   18.5260   16.5370 H   0  0  0  0  0  0  0  0  0  0  0  0
   29.2310   19.2050   17.8730 H   0  0  0  0  0  0  0  0  0  0  0  0
   25.7440   22.4290   19.0910 H   0  0  0  0  0  0  0  0  0  0  0  0
   24.1220   19.5140   19.8970 H   0  0  0  0  0  0  0  0  0  0  0  0
   23.6600   20.7100   21.0960 H   0  0  0  0  0  0  0  0  0  0  0  0
   23.7590   21.1630   19.3850 H   0  0  0  0  0  0  0  0  0  0  0  0
   27.3380   30.5700   10.0190 H   0  0  0  0  0  0  0  0  0  0  0  0
   26.1200   30.7010   11.2700 H   0  0  0  0  0  0  0  0  0  0  0  0
   25.2710   23.0110   22.0400 H   0  0  0  0  0  0  0  0  0  0  0  0
   25.3960   24.2320   20.7730 H   0  0  0  0  0  0  0  0  0  0  0  0
   24.1120   23.0400   20.7420 H   0  0  0  0  0  0  0  0  0  0  0  0
   29.8750   23.0370   22.6790 H   0  0  0  0  0  0  0  0  0  0  0  0
   32.3200   22.4240   22.6080 H   0  0  0  0  0  0  0  0  0  0  0  0
   33.0770   21.5470   21.2900 H   0  0  0  0  0  0  0  0  0  0  0  0
   34.8100   22.7970   22.5630 H   0  0  0  0  0  0  0  0  0  0  0  0
   33.8920   24.2730   22.4020 H   0  0  0  0  0  0  0  0  0  0  0  0
   35.5650   25.4720   21.5640 H   0  0  0  0  0  0  0  0  0  0  0  0
   37.9250   25.6690   20.8020 H   0  0  0  0  0  0  0  0  0  0  0  0
   37.6150   24.3470   19.5640 H   0  0  0  0  0  0  0  0  0  0  0  0
   37.2120   22.7690   21.4870 H   0  0  0  0  0  0  0  0  0  0  0  0
   37.4170   24.1460   22.6880 H   0  0  0  0  0  0  0  0  0  0  0  0
   33.7780   25.1510   19.7460 H   0  0  0  0  0  0  0  0  0  0  0  0
   34.6290   24.1150   18.6180 H   0  0  0  0  0  0  0  0  0  0  0  0
   32.9590   22.2910   19.0430 H   0  0  0  0  0  0  0  0  0  0  0  0
   32.1880   23.8130   18.6160 H   0  0  0  0  0  0  0  0  0  0  0  0
   28.9020   29.4970   11.4840 H   0  0  0  0  0  0  0  0  0  0  0  0
   28.2790   30.8220   12.4210 H   0  0  0  0  0  0  0  0  0  0  0  0
   30.4790   22.8120   18.4400 H   0  0  0  0  0  0  0  0  0  0  0  0
   28.9890   25.0190   15.6620 H   0  0  0  0  0  0  0  0  0  0  0  0
   29.4540   24.7300   17.2830 H   0  0  0  0  0  0  0  0  0  0  0  0
   27.7550   28.1250   17.4130 H   0  0  0  0  0  0  0  0  0  0  0  0
   29.1140   27.2560   18.1660 H   0  0  0  0  0  0  0  0  0  0  0  0
   29.0520   27.5030   16.4300 H   0  0  0  0  0  0  0  0  0  0  0  0
   26.4060   26.4590   18.8510 H   0  0  0  0  0  0  0  0  0  0  0  0
   26.3230   24.7630   18.3970 H   0  0  0  0  0  0  0  0  0  0  0  0
   27.7380   25.3860   19.2480 H   0  0  0  0  0  0  0  0  0  0  0  0
   25.9760   27.1130   16.3970 H   0  0  0  0  0  0  0  0  0  0  0  0
   25.8080   25.3920   16.1670 H   0  0  0  0  0  0  0  0  0  0  0  0
   25.1560   26.5230    9.8050 H   0  0  0  0  0  0  0  0  0  0  0  0
   23.9210   26.3690    5.5590 H   0  0  0  0  0  0  0  0  0  0  0  0
   22.1230   28.7980    6.1060 H   0  0  0  0  0  0  0  0  0  0  0  0
   25.3550   27.1750   11.2050 H   0  0  0  0  0  0  0  0  0  0  0  0
   25.7300   26.6040    6.9490 H   0  0  0  0  0  0  0  0  0  0  0  0
   35.3700   22.8520   20.3330 H   0  0  0  0  0  0  0  0  0  0  0  0
  1 12  1  0  0  0  0
  1 34  1  0  0  0  0
  1 63  1  0  0  0  0
  1 64  1  0  0  0  0
  2  3  1  0  0  0  0
  2 46  1  0  0  0  0
  2 47  1  0  0  0  0
  2 65  1  1  0  0  0
  3 58  1  0  0  0  0
  3 66  1  0  0  0  0
  3 67  1  0  0  0  0
  4 47  1  0  0  0  0
  4 58  1  0  0  0  0
  4 68  1  0  0  0  0
  4 69  1  0  0  0  0
  5  6  1  0  0  0  0
  5 44  1  0  0  0  0
  5 70  1  0  0  0  0
  5 71  1  0  0  0  0
  6 51  2  0  0  0  0
  6 62  1  0  0  0  0
  7  8  2  0  0  0  0
  7  9  1  0  0  0  0
  7 51  1  0  0  0  0
  8 62  1  0  0  0  0
  8 72  1  0  0  0  0
  9 10  1  0  0  0  0
  9 15  2  0  0  0  0
 10 11  2  0  0  0  0
 10 73  1  0  0  0  0
 11 13  1  0  0  0  0
 11 36  1  0  0  0  0
 12 42  1  0  0  0  0
 12 48  1  0  0  0  0
 12 74  1  6  0  0  0
 13 14  2  0  0  0  0
 13 52  1  0  0  0  0
 14 15  1  0  0  0  0
 14 75  1  0  0  0  0
 15 76  1  0  0  0  0
 16 17  1  0  0  0  0
 16 52  1  0  0  0  0
 16 77  1  0  0  0  0
 16 78  1  0  0  0  0
 17 79  1  0  0  0  0
 17 80  1  0  0  0  0
 17 81  1  0  0  0  0
 18 19  1  0  0  0  0
 18 36  2  0  0  0  0
 18 52  1  0  0  0  0
 19 20  2  0  0  0  0
 19 35  1  0  0  0  0
 20 21  1  0  0  0  0
 20 53  1  0  0  0  0
 21 24  1  0  0  0  0
 21 59  1  0  0  0  0
 21 82  1  6  0  0  0
 22 59  1  0  0  0  0
 22 83  1  0  0  0  0
 22 84  1  0  0  0  0
 22 85  1  0  0  0  0
 23 34  1  0  0  0  0
 23 49  1  0  0  0  0
 23 86  1  0  0  0  0
 23 87  1  0  0  0  0
 24 88  1  0  0  0  0
 24 89  1  0  0  0  0
 24 90  1  0  0  0  0
 25 26  1  0  0  0  0
 25 53  2  0  0  0  0
 25 91  1  0  0  0  0
 26 35  2  0  0  0  0
 26 54  1  0  0  0  0
 27 28  1  0  0  0  0
 27 54  1  0  0  0  0
 27 92  1  0  0  0  0
 27 93  1  0  0  0  0
 28 55  1  0  0  0  0
 28 94  1  0  0  0  0
 28 95  1  0  0  0  0
 29 30  1  0  0  0  0
 29 31  1  0  0  0  0
 29 55  1  0  0  0  0
 29 96  1  0  0  0  0
 30 31  1  0  0  0  0
 30 97  1  0  0  0  0
 30 98  1  0  0  0  0
 31 99  1  0  0  0  0
 31100  1  0  0  0  0
 32 33  1  0  0  0  0
 32 55  1  0  0  0  0
 32101  1  0  0  0  0
 32102  1  0  0  0  0
 33 54  1  0  0  0  0
 33103  1  0  0  0  0
 33104  1  0  0  0  0
 34105  1  0  0  0  0
 34106  1  0  0  0  0
 35107  1  0  0  0  0
 36 37  1  0  0  0  0
 37 38  1  0  0  0  0
 37108  1  0  0  0  0
 37109  1  0  0  0  0
 38 39  1  0  0  0  0
 38 40  1  0  0  0  0
 38 41  1  0  0  0  0
 39110  1  0  0  0  0
 39111  1  0  0  0  0
 39112  1  0  0  0  0
 40113  1  0  0  0  0
 40114  1  0  0  0  0
 40115  1  0  0  0  0
 41 60  1  0  0  0  0
 41116  1  0  0  0  0
 41117  1  0  0  0  0
 42 60  1  0  0  0  0
 42 61  2  0  0  0  0
 43 44  1  0  0  0  0
 43 49  1  0  0  0  0
 43 56  2  0  0  0  0
 44 50  1  0  0  0  0
 44118  1  1  0  0  0
 45 46  1  0  0  0  0
 45 50  1  0  0  0  0
 45 57  2  0  0  0  0
 46 47  1  0  0  0  0
 46119  1  6  0  0  0
 47120  1  1  0  0  0
 48 49  1  0  0  0  0
 48121  1  0  0  0  0
 50122  1  0  0  0  0
 55123  1  6  0  0  0
M  CHG  1  55   1
M  END
>  <COMPND>
    title: molecule 1

$$$$
9BHQ_ligand0.pdb
 OpenBabel06042612053D

123132  0  0  1  0  0  0  0  0999 V2000
  -27.6080   29.0830  -13.0510 C   0  0  0  0  0  0  0  0  0  0  0  0
  -21.8630   26.6800   -5.7720 C   0  0  1  0  0  0  0  0  0  0  0  0
  -21.5340   26.1610   -4.3940 C   0  0  0  0  0  0  0  0  0  0  0  0
  -22.2410   28.3250   -4.1100 C   0  0  0  0  0  0  0  0  0  0  0  0
  -27.0210   25.9730   -9.2340 C   0  0  0  0  0  0  0  0  0  0  0  0
  -26.6030   24.7290  -10.0620 C   0  0  0  0  0  0  0  0  0  0  0  0
  -26.3040   23.0620  -11.6760 C   0  0  0  0  0  0  0  0  0  0  0  0
  -25.4420   22.6330  -10.7290 C   0  0  0  0  0  0  0  0  0  0  0  0
  -26.5190   22.5000  -12.9760 C   0  0  0  0  0  0  0  0  0  0  0  0
  -27.0800   23.2550  -13.9820 C   0  0  0  0  0  0  0  0  0  0  0  0
  -27.2980   22.8320  -15.3370 C   0  0  0  0  0  0  0  0  0  0  0  0
  -26.8790   27.8090  -12.5760 C   0  0  1  0  0  0  0  0  0  0  0  0
  -26.8820   21.5310  -15.6960 C   0  0  0  0  0  0  0  0  0  0  0  0
  -26.2660   20.7270  -14.6640 C   0  0  0  0  0  0  0  0  0  0  0  0
  -26.0790   21.1960  -13.3710 C   0  0  0  0  0  0  0  0  0  0  0  0
  -26.9200   20.0640  -17.8170 C   0  0  0  0  0  0  0  0  0  0  0  0
  -27.8890   18.8920  -17.4350 C   0  0  0  0  0  0  0  0  0  0  0  0
  -27.8090   22.5140  -17.5810 C   0  0  0  0  0  0  0  0  0  0  0  0
  -28.2920   22.6840  -18.9680 C   0  0  0  0  0  0  0  0  0  0  0  0
  -27.4640   22.6520  -20.1330 C   0  0  0  0  0  0  0  0  0  0  0  0
  -25.8590   22.4220  -20.0930 C   0  0  2  0  0  0  0  0  0  0  0  0
  -24.0200   20.7980  -20.3470 C   0  0  0  0  0  0  0  0  0  0  0  0
  -26.9560   30.2500  -10.8640 C   0  0  0  0  0  0  0  0  0  0  0  0
  -25.0840   23.5470  -20.8100 C   0  0  0  0  0  0  0  0  0  0  0  0
  -29.3610   23.0380  -21.5310 C   0  0  0  0  0  0  0  0  0  0  0  0
  -30.2820   23.0930  -20.4850 C   0  0  0  0  0  0  0  0  0  0  0  0
  -32.4740   23.5210  -19.3600 C   0  0  0  0  0  0  0  0  0  0  0  0
  -33.8110   24.2740  -19.6530 C   0  0  0  0  0  0  0  0  0  0  0  0
  -35.7850   24.5170  -20.9360 C   0  0  0  0  0  0  0  0  0  0  0  0
  -37.1730   24.3330  -20.4030 C   0  0  0  0  0  0  0  0  0  0  0  0
  -36.8040   23.8450  -21.8060 C   0  0  0  0  0  0  0  0  0  0  0  0
  -33.8440   23.3430  -21.8970 C   0  0  0  0  0  0  0  0  0  0  0  0
  -32.5220   22.5410  -21.5350 C   0  0  0  0  0  0  0  0  0  0  0  0
  -28.0090   30.0660  -11.9530 C   0  0  0  0  0  0  0  0  0  0  0  0
  -29.6530   22.9100  -19.2130 C   0  0  0  0  0  0  0  0  0  0  0  0
  -27.8830   23.4440  -16.5520 C   0  0  0  0  0  0  0  0  0  0  0  0
  -28.5080   24.8380  -16.6480 C   0  0  0  0  0  0  0  0  0  0  0  0
  -27.6600   26.1340  -17.0360 C   0  0  0  0  0  0  0  0  0  0  0  0
  -28.6210   27.3910  -16.9880 C   0  0  0  0  0  0  0  0  0  0  0  0
  -27.0050   25.9780  -18.4380 C   0  0  0  0  0  0  0  0  0  0  0  0
  -26.5610   26.4540  -16.0550 C   0  0  0  0  0  0  0  0  0  0  0  0
  -26.2110   27.1630  -13.7960 C   0  0  0  0  0  0  0  0  0  0  0  0
  -26.4000   28.3420   -9.3070 C   0  0  0  0  0  0  0  0  0  0  0  0
  -25.8290   26.9410   -9.1100 C   0  0  1  0  0  0  0  0  0  0  0  0
  -23.8080   27.1470   -7.6400 C   0  0  0  0  0  0  0  0  0  0  0  0
  -23.2550   27.1070   -6.2610 C   0  0  2  0  0  0  0  0  0  0  0  0
  -22.3080   28.0910   -5.6010 C   0  0  2  0  0  0  0  0  0  0  0  0
  -25.8230   28.1240  -11.5960 N   0  0  0  0  0  0  0  0  0  0  0  0
  -26.3460   28.9280  -10.5940 N   0  0  0  0  0  0  0  0  0  0  0  0
  -25.1450   26.8850   -7.8530 N   0  0  0  0  0  0  0  0  0  0  0  0
  -26.9320   24.3110  -11.2510 N   0  0  0  0  0  0  0  0  0  0  0  0
  -27.1850   21.3180  -17.0660 N   0  0  0  0  0  0  0  0  0  0  0  0
  -28.0190   22.8280  -21.3480 N   0  0  0  0  0  0  0  0  0  0  0  0
  -31.7120   23.3240  -20.6110 N   0  0  0  0  0  0  0  0  0  0  0  0
  -34.6410   23.6610  -20.7310 N   0  3  1  0  0  0  0  0  0  0  0  0
  -26.8310   28.9320   -8.3380 O   0  0  0  0  0  0  0  0  0  0  0  0
  -23.0860   27.3910   -8.5940 O   0  0  0  0  0  0  0  0  0  0  0  0
  -22.3700   27.0120   -3.5820 O   0  0  0  0  0  0  0  0  0  0  0  0
  -25.4400   21.1640  -20.5700 O   0  0  0  0  0  0  0  0  0  0  0  0
  -26.9950   26.5700  -14.7050 O   0  0  0  0  0  0  0  0  0  0  0  0
  -25.0010   27.1520  -13.9720 O   0  0  0  0  0  0  0  0  0  0  0  0
  -25.3940   23.6450   -9.3150 S   0  0  0  0  0  0  0  0  0  0  0  0
  -28.4850   28.8140  -13.6400 H   0  0  0  0  0  0  0  0  0  0  0  0
  -26.9510   29.6280  -13.7310 H   0  0  0  0  0  0  0  0  0  0  0  0
  -21.1170   26.4770   -6.5380 H   0  0  0  0  0  0  0  0  0  0  0  0
  -20.4760   26.3110   -4.1810 H   0  0  0  0  0  0  0  0  0  0  0  0
  -21.7950   25.1100   -4.2790 H   0  0  0  0  0  0  0  0  0  0  0  0
  -23.0440   28.9890   -3.8040 H   0  0  0  0  0  0  0  0  0  0  0  0
  -21.2810   28.7650   -3.8360 H   0  0  0  0  0  0  0  0  0  0  0  0
  -27.3730   25.6510   -8.2530 H   0  0  0  0  0  0  0  0  0  0  0  0
  -27.8840   26.4150   -9.7370 H   0  0  0  0  0  0  0  0  0  0  0  0
  -24.8080   21.7570  -10.7620 H   0  0  0  0  0  0  0  0  0  0  0  0
  -27.4070   24.2550  -13.7500 H   0  0  0  0  0  0  0  0  0  0  0  0
  -27.5900   27.1170  -12.1250 H   0  0  0  0  0  0  0  0  0  0  0  0
  -25.9100   19.7450  -14.9300 H   0  0  0  0  0  0  0  0  0  0  0  0
  -25.5780   20.5890  -12.6400 H   0  0  0  0  0  0  0  0  0  0  0  0
  -27.0230   20.2480  -18.8820 H   0  0  0  0  0  0  0  0  0  0  0  0
  -25.8840   19.7710  -17.6430 H   0  0  0  0  0  0  0  0  0  0  0  0
  -27.6720   17.9970  -18.0190 H   0  0  0  0  0  0  0  0  0  0  0  0
  -27.8000   18.6310  -16.3800 H   0  0  0  0  0  0  0  0  0  0  0  0
  -28.9240   19.1740  -17.6230 H   0  0  0  0  0  0  0  0  0  0  0  0
  -25.5710   22.4710  -19.0430 H   0  0  0  0  0  0  0  0  0  0  0  0
  -23.8150   19.8190  -20.7740 H   0  0  0  0  0  0  0  0  0  0  0  0
  -23.3400   21.5160  -20.7850 H   0  0  0  0  0  0  0  0  0  0  0  0
  -23.8110   20.7420  -19.2790 H   0  0  0  0  0  0  0  0  0  0  0  0
  -27.3990   30.7110   -9.9830 H   0  0  0  0  0  0  0  0  0  0  0  0
  -26.1680   30.9170  -11.2130 H   0  0  0  0  0  0  0  0  0  0  0  0
  -24.0900   23.5390  -20.4240 H   0  0  0  0  0  0  0  0  0  0  0  0
  -25.0760   23.4240  -21.8930 H   0  0  0  0  0  0  0  0  0  0  0  0
  -25.5060   24.5230  -20.5800 H   0  0  0  0  0  0  0  0  0  0  0  0
  -29.6840   23.1670  -22.5530 H   0  0  0  0  0  0  0  0  0  0  0  0
  -32.6690   22.5590  -18.8840 H   0  0  0  0  0  0  0  0  0  0  0  0
  -31.9120   24.1310  -18.6530 H   0  0  0  0  0  0  0  0  0  0  0  0
  -33.5490   25.2810  -19.9680 H   0  0  0  0  0  0  0  0  0  0  0  0
  -34.3980   24.3560  -18.7380 H   0  0  0  0  0  0  0  0  0  0  0  0
  -35.4780   25.5190  -21.2280 H   0  0  0  0  0  0  0  0  0  0  0  0
  -37.8080   25.2110  -20.3220 H   0  0  0  0  0  0  0  0  0  0  0  0
  -37.3120   23.5860  -19.6240 H   0  0  0  0  0  0  0  0  0  0  0  0
  -36.7670   22.7650  -21.9410 H   0  0  0  0  0  0  0  0  0  0  0  0
  -37.1920   24.4040  -22.6540 H   0  0  0  0  0  0  0  0  0  0  0  0
  -34.4350   22.7550  -22.5990 H   0  0  0  0  0  0  0  0  0  0  0  0
  -33.5750   24.2670  -22.4110 H   0  0  0  0  0  0  0  0  0  0  0  0
  -31.9560   22.3340  -22.4430 H   0  0  0  0  0  0  0  0  0  0  0  0
  -32.7750   21.5780  -21.0930 H   0  0  0  0  0  0  0  0  0  0  0  0
  -28.9150   29.6890  -11.4770 H   0  0  0  0  0  0  0  0  0  0  0  0
  -28.2770   31.0050  -12.4180 H   0  0  0  0  0  0  0  0  0  0  0  0
  -30.2690   22.9010  -18.3280 H   0  0  0  0  0  0  0  0  0  0  0  0
  -28.9560   25.0490  -15.6810 H   0  0  0  0  0  0  0  0  0  0  0  0
  -29.3650   24.8000  -17.3180 H   0  0  0  0  0  0  0  0  0  0  0  0
  -28.0610   28.3250  -16.9660 H   0  0  0  0  0  0  0  0  0  0  0  0
  -29.2360   27.4190  -17.8800 H   0  0  0  0  0  0  0  0  0  0  0  0
  -29.2730   27.3820  -16.1140 H   0  0  0  0  0  0  0  0  0  0  0  0
  -26.4850   26.8880  -18.7380 H   0  0  0  0  0  0  0  0  0  0  0  0
  -26.2780   25.1660  -18.4400 H   0  0  0  0  0  0  0  0  0  0  0  0
  -27.7530   25.7550  -19.1990 H   0  0  0  0  0  0  0  0  0  0  0  0
  -26.0600   27.3740  -16.3570 H   0  0  0  0  0  0  0  0  0  0  0  0
  -25.8060   25.6670  -16.0930 H   0  0  0  0  0  0  0  0  0  0  0  0
  -25.0880   26.6790   -9.8640 H   0  0  0  0  0  0  0  0  0  0  0  0
  -24.0410   26.7740   -5.5850 H   0  0  0  0  0  0  0  0  0  0  0  0
  -21.8730   28.8510   -6.2370 H   0  0  0  0  0  0  0  0  0  0  0  0
  -25.4540   27.2670  -11.1880 H   0  0  0  0  0  0  0  0  0  0  0  0
  -25.7200   26.7120   -7.0370 H   0  0  0  0  0  0  0  0  0  0  0  0
  -34.9820   22.7750  -20.3740 H   0  0  0  0  0  0  0  0  0  0  0  0
  1 12  1  0  0  0  0
  1 34  1  0  0  0  0
  1 63  1  0  0  0  0
  1 64  1  0  0  0  0
  2  3  1  0  0  0  0
  2 46  1  0  0  0  0
  2 47  1  0  0  0  0
  2 65  1  6  0  0  0
  3 58  1  0  0  0  0
  3 66  1  0  0  0  0
  3 67  1  0  0  0  0
  4 47  1  0  0  0  0
  4 58  1  0  0  0  0
  4 68  1  0  0  0  0
  4 69  1  0  0  0  0
  5  6  1  0  0  0  0
  5 44  1  0  0  0  0
  5 70  1  0  0  0  0
  5 71  1  0  0  0  0
  6 51  2  0  0  0  0
  6 62  1  0  0  0  0
  7  8  2  0  0  0  0
  7  9  1  0  0  0  0
  7 51  1  0  0  0  0
  8 62  1  0  0  0  0
  8 72  1  0  0  0  0
  9 10  1  0  0  0  0
  9 15  2  0  0  0  0
 10 11  2  0  0  0  0
 10 73  1  0  0  0  0
 11 13  1  0  0  0  0
 11 36  1  0  0  0  0
 12 42  1  0  0  0  0
 12 48  1  0  0  0  0
 12 74  1  1  0  0  0
 13 14  2  0  0  0  0
 13 52  1  0  0  0  0
 14 15  1  0  0  0  0
 14 75  1  0  0  0  0
 15 76  1  0  0  0  0
 16 17  1  0  0  0  0
 16 52  1  0  0  0  0
 16 77  1  0  0  0  0
 16 78  1  0  0  0  0
 17 79  1  0  0  0  0
 17 80  1  0  0  0  0
 17 81  1  0  0  0  0
 18 19  1  0  0  0  0
 18 36  2  0  0  0  0
 18 52  1  0  0  0  0
 19 20  2  0  0  0  0
 19 35  1  0  0  0  0
 20 21  1  0  0  0  0
 20 53  1  0  0  0  0
 21 24  1  0  0  0  0
 21 59  1  0  0  0  0
 21 82  1  1  0  0  0
 22 59  1  0  0  0  0
 22 83  1  0  0  0  0
 22 84  1  0  0  0  0
 22 85  1  0  0  0  0
 23 34  1  0  0  0  0
 23 49  1  0  0  0  0
 23 86  1  0  0  0  0
 23 87  1  0  0  0  0
 24 88  1  0  0  0  0
 24 89  1  0  0  0  0
 24 90  1  0  0  0  0
 25 26  1  0  0  0  0
 25 53  2  0  0  0  0
 25 91  1  0  0  0  0
 26 35  2  0  0  0  0
 26 54  1  0  0  0  0
 27 28  1  0  0  0  0
 27 54  1  0  0  0  0
 27 92  1  0  0  0  0
 27 93  1  0  0  0  0
 28 55  1  0  0  0  0
 28 94  1  0  0  0  0
 28 95  1  0  0  0  0
 29 30  1  0  0  0  0
 29 31  1  0  0  0  0
 29 55  1  0  0  0  0
 29 96  1  0  0  0  0
 30 31  1  0  0  0  0
 30 97  1  0  0  0  0
 30 98  1  0  0  0  0
 31 99  1  0  0  0  0
 31100  1  0  0  0  0
 32 33  1  0  0  0  0
 32 55  1  0  0  0  0
 32101  1  0  0  0  0
 32102  1  0  0  0  0
 33 54  1  0  0  0  0
 33103  1  0  0  0  0
 33104  1  0  0  0  0
 34105  1  0  0  0  0
 34106  1  0  0  0  0
 35107  1  0  0  0  0
 36 37  1  0  0  0  0
 37 38  1  0  0  0  0
 37108  1  0  0  0  0
 37109  1  0  0  0  0
 38 39  1  0  0  0  0
 38 40  1  0  0  0  0
 38 41  1  0  0  0  0
 39110  1  0  0  0  0
 39111  1  0  0  0  0
 39112  1  0  0  0  0
 40113  1  0  0  0  0
 40114  1  0  0  0  0
 40115  1  0  0  0  0
 41 60  1  0  0  0  0
 41116  1  0  0  0  0
 41117  1  0  0  0  0
 42 60  1  0  0  0  0
 42 61  2  0  0  0  0
 43 44  1  0  0  0  0
 43 49  1  0  0  0  0
 43 56  2  0  0  0  0
 44 50  1  0  0  0  0
 44118  1  6  0  0  0
 45 46  1  0  0  0  0
 45 50  1  0  0  0  0
 45 57  2  0  0  0  0
 46 47  1  0  0  0  0
 46119  1  1  0  0  0
 47120  1  6  0  0  0
 48 49  1  0  0  0  0
 48121  1  0  0  0  0
 50122  1  0  0  0  0
 55123  1  1  0  0  0
M  CHG  1  55   1
M  END
>  <COMPND>
    title: molecule 1

$$$$
9BI1_ligand0.pdb
 OpenBabel06042612053D

123132  0  0  1  0  0  0  0  0999 V2000
    5.0370   12.3940   13.0800 C   0  0  0  0  0  0  0  0  0  0  0  0
   10.6700   14.9760    5.7060 C   0  0  1  0  0  0  0  0  0  0  0  0
   11.1160   15.3380    4.3540 C   0  0  0  0  0  0  0  0  0  0  0  0
   10.3610   13.1890    4.1260 C   0  0  0  0  0  0  0  0  0  0  0  0
    5.7820   15.4460    9.2930 C   0  0  0  0  0  0  0  0  0  0  0  0
    6.1920   16.6760   10.0650 C   0  0  0  0  0  0  0  0  0  0  0  0
    6.4530   18.3840   11.6270 C   0  0  0  0  0  0  0  0  0  0  0  0
    7.4420   18.7360   10.7710 C   0  0  0  0  0  0  0  0  0  0  0  0
    6.1610   18.9220   12.8770 C   0  0  0  0  0  0  0  0  0  0  0  0
    5.5840   18.1430   13.8810 C   0  0  0  0  0  0  0  0  0  0  0  0
    5.3610   18.5540   15.1990 C   0  0  0  0  0  0  0  0  0  0  0  0
    5.7630   13.6760   12.6140 C   0  0  1  0  0  0  0  0  0  0  0  0
    5.6970   19.8990   15.5500 C   0  0  0  0  0  0  0  0  0  0  0  0
    6.3070   20.6970   14.5360 C   0  0  0  0  0  0  0  0  0  0  0  0
    6.5270   20.2330   13.2550 C   0  0  0  0  0  0  0  0  0  0  0  0
    5.5390   21.3260   17.6440 C   0  0  0  0  0  0  0  0  0  0  0  0
    4.4910   22.3680   17.1570 C   0  0  0  0  0  0  0  0  0  0  0  0
    4.7860   18.8960   17.4070 C   0  0  0  0  0  0  0  0  0  0  0  0
    4.2700   18.7630   18.7530 C   0  0  0  0  0  0  0  0  0  0  0  0
    5.0730   18.8590   19.9250 C   0  0  0  0  0  0  0  0  0  0  0  0
    6.6420   19.0640   19.8860 C   0  0  2  0  0  0  0  0  0  0  0  0
    8.3750   20.7280   19.8250 C   0  0  0  0  0  0  0  0  0  0  0  0
    5.7430   11.2720   10.9760 C   0  0  0  0  0  0  0  0  0  0  0  0
    7.3860   17.9940   20.7000 C   0  0  0  0  0  0  0  0  0  0  0  0
    3.1840   18.5450   21.3200 C   0  0  0  0  0  0  0  0  0  0  0  0
    2.2710   18.4510   20.2660 C   0  0  0  0  0  0  0  0  0  0  0  0
    0.0660   18.7120   21.4680 C   0  0  0  0  0  0  0  0  0  0  0  0
   -1.1580   17.7810   21.6970 C   0  0  0  0  0  0  0  0  0  0  0  0
   -2.9970   16.5970   20.9260 C   0  0  0  0  0  0  0  0  0  0  0  0
   -4.3700   16.4340   20.3600 C   0  0  0  0  0  0  0  0  0  0  0  0
   -4.1310   17.2310   21.6510 C   0  0  0  0  0  0  0  0  0  0  0  0
   -1.2530   17.2350   19.3460 C   0  0  0  0  0  0  0  0  0  0  0  0
    0.0500   18.1120   19.1230 C   0  0  0  0  0  0  0  0  0  0  0  0
    4.5540   11.5960   11.8630 C   0  0  0  0  0  0  0  0  0  0  0  0
    2.9140   18.5860   19.0040 C   0  0  0  0  0  0  0  0  0  0  0  0
    4.7560   17.9570   16.3820 C   0  0  0  0  0  0  0  0  0  0  0  0
    4.1690   16.5520   16.5050 C   0  0  0  0  0  0  0  0  0  0  0  0
    5.0370   15.3560   16.9290 C   0  0  0  0  0  0  0  0  0  0  0  0
    4.1570   14.0550   16.9090 C   0  0  0  0  0  0  0  0  0  0  0  0
    5.5630   15.6860   18.3510 C   0  0  0  0  0  0  0  0  0  0  0  0
    6.1480   15.1450   15.9990 C   0  0  0  0  0  0  0  0  0  0  0  0
    6.4420   14.3120   13.7940 C   0  0  0  0  0  0  0  0  0  0  0  0
    6.3790   13.0750    9.2720 C   0  0  0  0  0  0  0  0  0  0  0  0
    6.9390   14.4870    9.0680 C   0  0  1  0  0  0  0  0  0  0  0  0
    8.8780   14.3830    7.5160 C   0  0  0  0  0  0  0  0  0  0  0  0
    9.3300   14.4590    6.1450 C   0  0  2  0  0  0  0  0  0  0  0  0
   10.3460   13.5020    5.5830 C   0  0  2  0  0  0  0  0  0  0  0  0
    6.8260   13.3610   11.6470 N   0  0  0  0  0  0  0  0  0  0  0  0
    6.3300   12.5670   10.6090 N   0  0  0  0  0  0  0  0  0  0  0  0
    7.5830   14.5690    7.7710 N   0  0  0  0  0  0  0  0  0  0  0  0
    5.8350   17.1390   11.1990 N   0  0  0  0  0  0  0  0  0  0  0  0
    5.3750   20.0720   16.8870 N   0  0  0  0  0  0  0  0  0  0  0  0
    4.5140   18.7330   21.1300 N   0  0  0  0  0  0  0  0  0  0  0  0
    0.8580   18.2150   20.3330 N   0  0  0  0  0  0  0  0  0  0  0  0
   -2.0000   17.5580   20.5340 N   0  3  2  0  0  0  0  0  0  0  0  0
    5.9590   12.4770    8.3000 O   0  0  0  0  0  0  0  0  0  0  0  0
    9.7060   14.1190    8.3940 O   0  0  0  0  0  0  0  0  0  0  0  0
   10.3230   14.4660    3.5550 O   0  0  0  0  0  0  0  0  0  0  0  0
    7.0040   20.3800   20.2670 O   0  0  0  0  0  0  0  0  0  0  0  0
    5.6210   14.8600   14.6780 O   0  0  0  0  0  0  0  0  0  0  0  0
    7.6540   14.2840   13.9430 O   0  0  0  0  0  0  0  0  0  0  0  0
    7.5480   17.6830    9.4150 S   0  0  0  0  0  0  0  0  0  0  0  0
    4.1890   12.6460   13.7180 H   0  0  0  0  0  0  0  0  0  0  0  0
    5.7050   11.7700   13.6770 H   0  0  0  0  0  0  0  0  0  0  0  0
   11.3610   15.2610    6.4960 H   0  0  0  0  0  0  0  0  0  0  0  0
   12.1800   15.1420    4.2290 H   0  0  0  0  0  0  0  0  0  0  0  0
   10.9030   16.3800    4.1210 H   0  0  0  0  0  0  0  0  0  0  0  0
    9.4940   12.5920    3.8560 H   0  0  0  0  0  0  0  0  0  0  0  0
   11.2780   12.6630    3.8570 H   0  0  0  0  0  0  0  0  0  0  0  0
    5.3890   15.7750    8.3370 H   0  0  0  0  0  0  0  0  0  0  0  0
    4.9420   14.9970    9.8280 H   0  0  0  0  0  0  0  0  0  0  0  0
    8.1330   19.5590   10.8510 H   0  0  0  0  0  0  0  0  0  0  0  0
    5.2900   17.1330   13.6510 H   0  0  0  0  0  0  0  0  0  0  0  0
    5.0570   14.3720   12.1620 H   0  0  0  0  0  0  0  0  0  0  0  0
    6.6070   21.7030   14.7860 H   0  0  0  0  0  0  0  0  0  0  0  0
    6.9810   20.8860   12.5290 H   0  0  0  0  0  0  0  0  0  0  0  0
    5.3850   21.1770   18.7060 H   0  0  0  0  0  0  0  0  0  0  0  0
    6.5540   21.6970   17.4970 H   0  0  0  0  0  0  0  0  0  0  0  0
    4.6610   23.3370   17.6250 H   0  0  0  0  0  0  0  0  0  0  0  0
    4.5210   22.5100   16.0760 H   0  0  0  0  0  0  0  0  0  0  0  0
    3.4910   22.0390   17.4350 H   0  0  0  0  0  0  0  0  0  0  0  0
    6.9570   18.9270   18.8520 H   0  0  0  0  0  0  0  0  0  0  0  0
    8.5790   21.7670   20.0800 H   0  0  0  0  0  0  0  0  0  0  0  0
    9.1510   20.1260   20.2880 H   0  0  0  0  0  0  0  0  0  0  0  0
    8.4660   20.6420   18.7440 H   0  0  0  0  0  0  0  0  0  0  0  0
    5.4260   10.7160   10.0940 H   0  0  0  0  0  0  0  0  0  0  0  0
    6.4810   10.6650   11.5020 H   0  0  0  0  0  0  0  0  0  0  0  0
    7.0090   17.9480   21.7220 H   0  0  0  0  0  0  0  0  0  0  0  0
    7.2670   17.0060   20.2670 H   0  0  0  0  0  0  0  0  0  0  0  0
    8.4310   18.2080   20.7900 H   0  0  0  0  0  0  0  0  0  0  0  0
    2.8630   18.4520   22.3460 H   0  0  0  0  0  0  0  0  0  0  0  0
    0.6610   18.7730   22.3780 H   0  0  0  0  0  0  0  0  0  0  0  0
   -0.3090   19.7090   21.2440 H   0  0  0  0  0  0  0  0  0  0  0  0
   -1.7540   18.1920   22.5130 H   0  0  0  0  0  0  0  0  0  0  0  0
   -0.7690   16.8250   22.0540 H   0  0  0  0  0  0  0  0  0  0  0  0
   -2.5570   15.6860   21.3310 H   0  0  0  0  0  0  0  0  0  0  0  0
   -4.8720   15.4920   20.4980 H   0  0  0  0  0  0  0  0  0  0  0  0
   -4.6140   16.9800   19.4510 H   0  0  0  0  0  0  0  0  0  0  0  0
   -4.2630   18.3100   21.5890 H   0  0  0  0  0  0  0  0  0  0  0  0
   -4.4420   16.7760   22.5890 H   0  0  0  0  0  0  0  0  0  0  0  0
   -0.9290   16.2040   19.4460 H   0  0  0  0  0  0  0  0  0  0  0  0
   -1.9030   17.2800   18.4710 H   0  0  0  0  0  0  0  0  0  0  0  0
   -0.2190   19.1110   18.7790 H   0  0  0  0  0  0  0  0  0  0  0  0
    0.5910   17.6220   18.3170 H   0  0  0  0  0  0  0  0  0  0  0  0
    3.8010   12.1580   11.3080 H   0  0  0  0  0  0  0  0  0  0  0  0
    4.0750   10.6910   12.2160 H   0  0  0  0  0  0  0  0  0  0  0  0
    2.3200   18.5810   18.1060 H   0  0  0  0  0  0  0  0  0  0  0  0
    3.7130   16.3120   15.5450 H   0  0  0  0  0  0  0  0  0  0  0  0
    3.3090   16.5880   17.1730 H   0  0  0  0  0  0  0  0  0  0  0  0
    4.7730   13.1610   16.9920 H   0  0  0  0  0  0  0  0  0  0  0  0
    3.4670   14.0450   17.7500 H   0  0  0  0  0  0  0  0  0  0  0  0
    3.5690   13.9610   15.9950 H   0  0  0  0  0  0  0  0  0  0  0  0
    6.1240   14.8440   18.7550 H   0  0  0  0  0  0  0  0  0  0  0  0
    6.2350   16.5420   18.3280 H   0  0  0  0  0  0  0  0  0  0  0  0
    4.7520   15.8980   19.0480 H   0  0  0  0  0  0  0  0  0  0  0  0
    6.7480   14.3030   16.3440 H   0  0  0  0  0  0  0  0  0  0  0  0
    6.8010   16.0180   15.9570 H   0  0  0  0  0  0  0  0  0  0  0  0
    7.7100   14.6890    9.8110 H   0  0  0  0  0  0  0  0  0  0  0  0
    8.5230   14.7200    5.4630 H   0  0  0  0  0  0  0  0  0  0  0  0
   10.8330   12.8020    6.2540 H   0  0  0  0  0  0  0  0  0  0  0  0
    7.2190   14.2180   11.2640 H   0  0  0  0  0  0  0  0  0  0  0  0
    6.9750   14.7220    6.9770 H   0  0  0  0  0  0  0  0  0  0  0  0
   -2.4700   18.4310   20.3400 H   0  0  0  0  0  0  0  0  0  0  0  0
  1 12  1  0  0  0  0
  1 34  1  0  0  0  0
  1 63  1  0  0  0  0
  1 64  1  0  0  0  0
  2  3  1  0  0  0  0
  2 46  1  0  0  0  0
  2 47  1  0  0  0  0
  2 65  1  1  0  0  0
  3 58  1  0  0  0  0
  3 66  1  0  0  0  0
  3 67  1  0  0  0  0
  4 47  1  0  0  0  0
  4 58  1  0  0  0  0
  4 68  1  0  0  0  0
  4 69  1  0  0  0  0
  5  6  1  0  0  0  0
  5 44  1  0  0  0  0
  5 70  1  0  0  0  0
  5 71  1  0  0  0  0
  6 51  2  0  0  0  0
  6 62  1  0  0  0  0
  7  8  2  0  0  0  0
  7  9  1  0  0  0  0
  7 51  1  0  0  0  0
  8 62  1  0  0  0  0
  8 72  1  0  0  0  0
  9 10  1  0  0  0  0
  9 15  2  0  0  0  0
 10 11  2  0  0  0  0
 10 73  1  0  0  0  0
 11 13  1  0  0  0  0
 11 36  1  0  0  0  0
 12 42  1  0  0  0  0
 12 48  1  0  0  0  0
 12 74  1  6  0  0  0
 13 14  2  0  0  0  0
 13 52  1  0  0  0  0
 14 15  1  0  0  0  0
 14 75  1  0  0  0  0
 15 76  1  0  0  0  0
 16 17  1  0  0  0  0
 16 52  1  0  0  0  0
 16 77  1  0  0  0  0
 16 78  1  0  0  0  0
 17 79  1  0  0  0  0
 17 80  1  0  0  0  0
 17 81  1  0  0  0  0
 18 19  1  0  0  0  0
 18 36  2  0  0  0  0
 18 52  1  0  0  0  0
 19 20  2  0  0  0  0
 19 35  1  0  0  0  0
 20 21  1  0  0  0  0
 20 53  1  0  0  0  0
 21 24  1  0  0  0  0
 21 59  1  0  0  0  0
 21 82  1  6  0  0  0
 22 59  1  0  0  0  0
 22 83  1  0  0  0  0
 22 84  1  0  0  0  0
 22 85  1  0  0  0  0
 23 34  1  0  0  0  0
 23 49  1  0  0  0  0
 23 86  1  0  0  0  0
 23 87  1  0  0  0  0
 24 88  1  0  0  0  0
 24 89  1  0  0  0  0
 24 90  1  0  0  0  0
 25 26  1  0  0  0  0
 25 53  2  0  0  0  0
 25 91  1  0  0  0  0
 26 35  2  0  0  0  0
 26 54  1  0  0  0  0
 27 28  1  0  0  0  0
 27 54  1  0  0  0  0
 27 92  1  0  0  0  0
 27 93  1  0  0  0  0
 28 55  1  0  0  0  0
 28 94  1  0  0  0  0
 28 95  1  0  0  0  0
 29 30  1  0  0  0  0
 29 31  1  0  0  0  0
 29 55  1  0  0  0  0
 29 96  1  0  0  0  0
 30 31  1  0  0  0  0
 30 97  1  0  0  0  0
 30 98  1  0  0  0  0
 31 99  1  0  0  0  0
 31100  1  0  0  0  0
 32 33  1  0  0  0  0
 32 55  1  0  0  0  0
 32101  1  0  0  0  0
 32102  1  0  0  0  0
 33 54  1  0  0  0  0
 33103  1  0  0  0  0
 33104  1  0  0  0  0
 34105  1  0  0  0  0
 34106  1  0  0  0  0
 35107  1  0  0  0  0
 36 37  1  0  0  0  0
 37 38  1  0  0  0  0
 37108  1  0  0  0  0
 37109  1  0  0  0  0
 38 39  1  0  0  0  0
 38 40  1  0  0  0  0
 38 41  1  0  0  0  0
 39110  1  0  0  0  0
 39111  1  0  0  0  0
 39112  1  0  0  0  0
 40113  1  0  0  0  0
 40114  1  0  0  0  0
 40115  1  0  0  0  0
 41 60  1  0  0  0  0
 41116  1  0  0  0  0
 41117  1  0  0  0  0
 42 60  1  0  0  0  0
 42 61  2  0  0  0  0
 43 44  1  0  0  0  0
 43 49  1  0  0  0  0
 43 56  2  0  0  0  0
 44 50  1  0  0  0  0
 44118  1  1  0  0  0
 45 46  1  0  0  0  0
 45 50  1  0  0  0  0
 45 57  2  0  0  0  0
 46 47  1  0  0  0  0
 46119  1  6  0  0  0
 47120  1  1  0  0  0
 48 49  1  0  0  0  0
 48121  1  0  0  0  0
 50122  1  0  0  0  0
 55123  1  6  0  0  0
M  CHG  1  55   1
M  END
>  <COMPND>
    title: molecule 1

$$$$
9BI2_ligand0.pdb
 OpenBabel06042612053D

123132  0  0  1  0  0  0  0  0999 V2000
  -27.3590   28.5960  -13.1190 C   0  0  0  0  0  0  0  0  0  0  0  0
  -21.6060   26.2560   -5.5200 C   0  0  1  0  0  0  0  0  0  0  0  0
  -21.1660   25.8540   -4.1210 C   0  0  0  0  0  0  0  0  0  0  0  0
  -22.2170   27.9140   -3.8960 C   0  0  0  0  0  0  0  0  0  0  0  0
  -26.8470   25.5050   -9.1620 C   0  0  0  0  0  0  0  0  0  0  0  0
  -26.3870   24.2540   -9.9570 C   0  0  0  0  0  0  0  0  0  0  0  0
  -25.9660   22.5130  -11.5160 C   0  0  0  0  0  0  0  0  0  0  0  0
  -25.0950   22.1910  -10.5180 C   0  0  0  0  0  0  0  0  0  0  0  0
  -26.2210   21.8280  -12.9250 C   0  0  0  0  0  0  0  0  0  0  0  0
  -26.8150   22.5580  -13.9500 C   0  0  0  0  0  0  0  0  0  0  0  0
  -27.1210   22.1300  -15.3020 C   0  0  0  0  0  0  0  0  0  0  0  0
  -26.6320   27.3070  -12.6400 C   0  0  1  0  0  0  0  0  0  0  0  0
  -26.7720   20.8080  -15.6560 C   0  0  0  0  0  0  0  0  0  0  0  0
  -26.1370   20.0040  -14.6120 C   0  0  0  0  0  0  0  0  0  0  0  0
  -25.8720   20.4860  -13.3180 C   0  0  0  0  0  0  0  0  0  0  0  0
  -27.0050   19.3390  -17.8050 C   0  0  0  0  0  0  0  0  0  0  0  0
  -28.1580   18.3280  -17.5220 C   0  0  0  0  0  0  0  0  0  0  0  0
  -27.7730   21.8370  -17.5450 C   0  0  0  0  0  0  0  0  0  0  0  0
  -28.3180   22.0400  -19.0090 C   0  0  0  0  0  0  0  0  0  0  0  0
  -27.4840   21.9790  -20.1860 C   0  0  0  0  0  0  0  0  0  0  0  0
  -25.8520   21.6670  -20.0960 C   0  0  2  0  0  0  0  0  0  0  0  0
  -24.0940   19.9480  -20.1420 C   0  0  0  0  0  0  0  0  0  0  0  0
  -26.7740   29.7120  -10.8810 C   0  0  0  0  0  0  0  0  0  0  0  0
  -24.9920   22.6820  -20.8710 C   0  0  0  0  0  0  0  0  0  0  0  0
  -29.3840   22.4600  -21.6000 C   0  0  0  0  0  0  0  0  0  0  0  0
  -30.3050   22.5690  -20.5490 C   0  0  0  0  0  0  0  0  0  0  0  0
  -32.5070   22.8870  -19.2980 C   0  0  0  0  0  0  0  0  0  0  0  0
  -33.7920   23.7340  -19.4590 C   0  0  0  0  0  0  0  0  0  0  0  0
  -35.7080   24.3020  -20.6360 C   0  0  0  0  0  0  0  0  0  0  0  0
  -37.1130   24.3180  -20.0890 C   0  0  0  0  0  0  0  0  0  0  0  0
  -36.8520   23.8960  -21.5280 C   0  0  0  0  0  0  0  0  0  0  0  0
  -33.9450   22.9500  -21.7560 C   0  0  0  0  0  0  0  0  0  0  0  0
  -32.6580   22.0970  -21.5100 C   0  0  0  0  0  0  0  0  0  0  0  0
  -27.8380   29.5060  -11.9700 C   0  0  0  0  0  0  0  0  0  0  0  0
  -29.6610   22.3630  -19.2740 C   0  0  0  0  0  0  0  0  0  0  0  0
  -27.7430   22.7800  -16.5140 C   0  0  0  0  0  0  0  0  0  0  0  0
  -28.3260   24.2200  -16.5990 C   0  0  0  0  0  0  0  0  0  0  0  0
  -27.4550   25.4800  -17.0400 C   0  0  0  0  0  0  0  0  0  0  0  0
  -28.2900   26.7910  -17.0540 C   0  0  0  0  0  0  0  0  0  0  0  0
  -26.8610   25.2660  -18.4590 C   0  0  0  0  0  0  0  0  0  0  0  0
  -26.2860   25.6250  -16.0400 C   0  0  0  0  0  0  0  0  0  0  0  0
  -25.9210   26.5990  -13.8350 C   0  0  0  0  0  0  0  0  0  0  0  0
  -26.2370   27.8410   -9.2450 C   0  0  0  0  0  0  0  0  0  0  0  0
  -25.6370   26.4610   -8.9530 C   0  0  1  0  0  0  0  0  0  0  0  0
  -23.6030   26.6180   -7.4440 C   0  0  0  0  0  0  0  0  0  0  0  0
  -23.0350   26.5610   -6.0500 C   0  0  2  0  0  0  0  0  0  0  0  0
  -22.1840   27.6280   -5.3800 C   0  0  2  0  0  0  0  0  0  0  0  0
  -25.5960   27.6670  -11.6160 N   0  0  0  0  0  0  0  0  0  0  0  0
  -26.1820   28.4070  -10.5670 N   0  0  0  0  0  0  0  0  0  0  0  0
  -24.9720   26.4050   -7.6700 N   0  0  0  0  0  0  0  0  0  0  0  0
  -26.6710   23.7560  -11.1390 N   0  0  0  0  0  0  0  0  0  0  0  0
  -27.1610   20.6110  -17.0370 N   0  0  0  0  0  0  0  0  0  0  0  0
  -28.0460   22.1870  -21.4050 N   0  0  0  0  0  0  0  0  0  0  0  0
  -31.7560   22.8540  -20.5950 N   0  0  0  0  0  0  0  0  0  0  0  0
  -34.6960   23.2840  -20.5450 N   0  3  1  0  0  0  0  0  0  0  0  0
  -26.7320   28.4230   -8.3010 O   0  0  0  0  0  0  0  0  0  0  0  0
  -22.8820   26.8720   -8.4000 O   0  0  0  0  0  0  0  0  0  0  0  0
  -22.0030   26.6510   -3.2860 O   0  0  0  0  0  0  0  0  0  0  0  0
  -25.4430   20.3480  -20.4550 O   0  0  0  0  0  0  0  0  0  0  0  0
  -26.6540   25.8190  -14.6680 O   0  0  0  0  0  0  0  0  0  0  0  0
  -24.7200   26.7020  -14.0330 O   0  0  0  0  0  0  0  0  0  0  0  0
  -25.1220   23.2900   -9.1500 S   0  0  0  0  0  0  0  0  0  0  0  0
  -28.2060   28.3300  -13.7520 H   0  0  0  0  0  0  0  0  0  0  0  0
  -26.6890   29.1720  -13.7490 H   0  0  0  0  0  0  0  0  0  0  0  0
  -20.8700   26.0690   -6.2970 H   0  0  0  0  0  0  0  0  0  0  0  0
  -20.1260   26.1240   -3.9650 H   0  0  0  0  0  0  0  0  0  0  0  0
  -21.3030   24.7870   -3.9440 H   0  0  0  0  0  0  0  0  0  0  0  0
  -23.1720   28.3490   -3.5990 H   0  0  0  0  0  0  0  0  0  0  0  0
  -21.4130   28.6000   -3.6290 H   0  0  0  0  0  0  0  0  0  0  0  0
  -27.2620   25.1890   -8.2040 H   0  0  0  0  0  0  0  0  0  0  0  0
  -27.6770   25.9420   -9.7230 H   0  0  0  0  0  0  0  0  0  0  0  0
  -24.4160   21.3520  -10.4960 H   0  0  0  0  0  0  0  0  0  0  0  0
  -27.0980   23.5700  -13.7160 H   0  0  0  0  0  0  0  0  0  0  0  0
  -27.3510   26.6240  -12.1870 H   0  0  0  0  0  0  0  0  0  0  0  0
  -25.8530   18.9970  -14.8690 H   0  0  0  0  0  0  0  0  0  0  0  0
  -25.4440   19.8510  -12.5720 H   0  0  0  0  0  0  0  0  0  0  0  0
  -27.0320   19.5610  -18.8650 H   0  0  0  0  0  0  0  0  0  0  0  0
  -26.0310   18.9010  -17.5860 H   0  0  0  0  0  0  0  0  0  0  0  0
  -28.1860   17.5360  -18.2600 H   0  0  0  0  0  0  0  0  0  0  0  0
  -28.0650   17.8830  -16.5310 H   0  0  0  0  0  0  0  0  0  0  0  0
  -29.1200   18.8360  -17.5760 H   0  0  0  0  0  0  0  0  0  0  0  0
  -25.5800   21.7830  -19.0470 H   0  0  0  0  0  0  0  0  0  0  0  0
  -23.5280   19.8540  -21.0550 H   0  0  0  0  0  0  0  0  0  0  0  0
  -23.5860   20.6270  -19.4560 H   0  0  0  0  0  0  0  0  0  0  0  0
  -24.1120   18.9620  -19.6780 H   0  0  0  0  0  0  0  0  0  0  0  0
  -27.2140   30.1910  -10.0080 H   0  0  0  0  0  0  0  0  0  0  0  0
  -25.9790   30.3640  -11.2440 H   0  0  0  0  0  0  0  0  0  0  0  0
  -23.9710   22.3510  -20.9810 H   0  0  0  0  0  0  0  0  0  0  0  0
  -25.3740   22.8010  -21.8840 H   0  0  0  0  0  0  0  0  0  0  0  0
  -25.0000   23.6600  -20.3990 H   0  0  0  0  0  0  0  0  0  0  0  0
  -29.7010   22.5920  -22.6240 H   0  0  0  0  0  0  0  0  0  0  0  0
  -32.7310   21.8790  -18.9440 H   0  0  0  0  0  0  0  0  0  0  0  0
  -31.9390   23.3950  -18.5210 H   0  0  0  0  0  0  0  0  0  0  0  0
  -33.4660   24.7520  -19.6670 H   0  0  0  0  0  0  0  0  0  0  0  0
  -34.3370   23.7610  -18.5140 H   0  0  0  0  0  0  0  0  0  0  0  0
  -35.2660   25.2700  -20.8730 H   0  0  0  0  0  0  0  0  0  0  0  0
  -37.5750   25.2890  -19.9240 H   0  0  0  0  0  0  0  0  0  0  0  0
  -37.3780   23.5460  -19.3690 H   0  0  0  0  0  0  0  0  0  0  0  0
  -36.9970   22.8420  -21.7580 H   0  0  0  0  0  0  0  0  0  0  0  0
  -37.1420   24.5880  -22.3170 H   0  0  0  0  0  0  0  0  0  0  0  0
  -34.6030   22.4220  -22.4460 H   0  0  0  0  0  0  0  0  0  0  0  0
  -33.6580   23.8770  -22.2550 H   0  0  0  0  0  0  0  0  0  0  0  0
  -32.1480   21.9080  -22.4550 H   0  0  0  0  0  0  0  0  0  0  0  0
  -32.9240   21.1290  -21.0910 H   0  0  0  0  0  0  0  0  0  0  0  0
  -28.7170   29.0520  -11.5100 H   0  0  0  0  0  0  0  0  0  0  0  0
  -28.1660   30.4450  -12.3930 H   0  0  0  0  0  0  0  0  0  0  0  0
  -30.2430   22.3970  -18.3700 H   0  0  0  0  0  0  0  0  0  0  0  0
  -28.7450   24.4550  -15.6210 H   0  0  0  0  0  0  0  0  0  0  0  0
  -29.2020   24.1990  -17.2460 H   0  0  0  0  0  0  0  0  0  0  0  0
  -27.6450   27.6590  -17.1820 H   0  0  0  0  0  0  0  0  0  0  0  0
  -29.0230   26.7890  -17.8590 H   0  0  0  0  0  0  0  0  0  0  0  0
  -28.8270   26.9270  -16.1150 H   0  0  0  0  0  0  0  0  0  0  0  0
  -26.2840   26.1350  -18.7750 H   0  0  0  0  0  0  0  0  0  0  0  0
  -26.1990   24.4010  -18.4830 H   0  0  0  0  0  0  0  0  0  0  0  0
  -27.6470   25.1030  -19.1970 H   0  0  0  0  0  0  0  0  0  0  0  0
  -25.7010   26.4890  -16.3520 H   0  0  0  0  0  0  0  0  0  0  0  0
  -25.6260   24.7590  -16.0980 H   0  0  0  0  0  0  0  0  0  0  0  0
  -24.8900   26.2390   -9.7140 H   0  0  0  0  0  0  0  0  0  0  0  0
  -23.8000   26.1610   -5.3870 H   0  0  0  0  0  0  0  0  0  0  0  0
  -21.8510   28.4280   -6.0280 H   0  0  0  0  0  0  0  0  0  0  0  0
  -25.1710   26.8260  -11.2370 H   0  0  0  0  0  0  0  0  0  0  0  0
  -25.5660   26.2600   -6.8620 H   0  0  0  0  0  0  0  0  0  0  0  0
  -35.1360   22.4300  -20.2320 H   0  0  0  0  0  0  0  0  0  0  0  0
  1 12  1  0  0  0  0
  1 34  1  0  0  0  0
  1 63  1  0  0  0  0
  1 64  1  0  0  0  0
  2  3  1  0  0  0  0
  2 46  1  0  0  0  0
  2 47  1  0  0  0  0
  2 65  1  6  0  0  0
  3 58  1  0  0  0  0
  3 66  1  0  0  0  0
  3 67  1  0  0  0  0
  4 47  1  0  0  0  0
  4 58  1  0  0  0  0
  4 68  1  0  0  0  0
  4 69  1  0  0  0  0
  5  6  1  0  0  0  0
  5 44  1  0  0  0  0
  5 70  1  0  0  0  0
  5 71  1  0  0  0  0
  6 51  2  0  0  0  0
  6 62  1  0  0  0  0
  7  8  2  0  0  0  0
  7  9  1  0  0  0  0
  7 51  1  0  0  0  0
  8 62  1  0  0  0  0
  8 72  1  0  0  0  0
  9 10  1  0  0  0  0
  9 15  2  0  0  0  0
 10 11  2  0  0  0  0
 10 73  1  0  0  0  0
 11 13  1  0  0  0  0
 11 36  1  0  0  0  0
 12 42  1  0  0  0  0
 12 48  1  0  0  0  0
 12 74  1  1  0  0  0
 13 14  2  0  0  0  0
 13 52  1  0  0  0  0
 14 15  1  0  0  0  0
 14 75  1  0  0  0  0
 15 76  1  0  0  0  0
 16 17  1  0  0  0  0
 16 52  1  0  0  0  0
 16 77  1  0  0  0  0
 16 78  1  0  0  0  0
 17 79  1  0  0  0  0
 17 80  1  0  0  0  0
 17 81  1  0  0  0  0
 18 19  1  0  0  0  0
 18 36  2  0  0  0  0
 18 52  1  0  0  0  0
 19 20  2  0  0  0  0
 19 35  1  0  0  0  0
 20 21  1  0  0  0  0
 20 53  1  0  0  0  0
 21 24  1  0  0  0  0
 21 59  1  0  0  0  0
 21 82  1  1  0  0  0
 22 59  1  0  0  0  0
 22 83  1  0  0  0  0
 22 84  1  0  0  0  0
 22 85  1  0  0  0  0
 23 34  1  0  0  0  0
 23 49  1  0  0  0  0
 23 86  1  0  0  0  0
 23 87  1  0  0  0  0
 24 88  1  0  0  0  0
 24 89  1  0  0  0  0
 24 90  1  0  0  0  0
 25 26  1  0  0  0  0
 25 53  2  0  0  0  0
 25 91  1  0  0  0  0
 26 35  2  0  0  0  0
 26 54  1  0  0  0  0
 27 28  1  0  0  0  0
 27 54  1  0  0  0  0
 27 92  1  0  0  0  0
 27 93  1  0  0  0  0
 28 55  1  0  0  0  0
 28 94  1  0  0  0  0
 28 95  1  0  0  0  0
 29 30  1  0  0  0  0
 29 31  1  0  0  0  0
 29 55  1  0  0  0  0
 29 96  1  0  0  0  0
 30 31  1  0  0  0  0
 30 97  1  0  0  0  0
 30 98  1  0  0  0  0
 31 99  1  0  0  0  0
 31100  1  0  0  0  0
 32 33  1  0  0  0  0
 32 55  1  0  0  0  0
 32101  1  0  0  0  0
 32102  1  0  0  0  0
 33 54  1  0  0  0  0
 33103  1  0  0  0  0
 33104  1  0  0  0  0
 34105  1  0  0  0  0
 34106  1  0  0  0  0
 35107  1  0  0  0  0
 36 37  1  0  0  0  0
 37 38  1  0  0  0  0
 37108  1  0  0  0  0
 37109  1  0  0  0  0
 38 39  1  0  0  0  0
 38 40  1  0  0  0  0
 38 41  1  0  0  0  0
 39110  1  0  0  0  0
 39111  1  0  0  0  0
 39112  1  0  0  0  0
 40113  1  0  0  0  0
 40114  1  0  0  0  0
 40115  1  0  0  0  0
 41 60  1  0  0  0  0
 41116  1  0  0  0  0
 41117  1  0  0  0  0
 42 60  1  0  0  0  0
 42 61  2  0  0  0  0
 43 44  1  0  0  0  0
 43 49  1  0  0  0  0
 43 56  2  0  0  0  0
 44 50  1  0  0  0  0
 44118  1  6  0  0  0
 45 46  1  0  0  0  0
 45 50  1  0  0  0  0
 45 57  2  0  0  0  0
 46 47  1  0  0  0  0
 46119  1  1  0  0  0
 47120  1  6  0  0  0
 48 49  1  0  0  0  0
 48121  1  0  0  0  0
 50122  1  0  0  0  0
 55123  1  1  0  0  0
M  CHG  1  55   1
M  END
>  <COMPND>
    title: molecule 1

$$$$
merged.pdb
 OpenBabel06042612053D

144147  0  0  1  0  0  0  0  0999 V2000
   -6.8160   26.0140   40.3650 C   0  0  0  0  0  0  0  0  0  0  0  0
   -7.7150   26.7390   39.5040 O   0  0  0  0  0  0  0  0  0  0  0  0
   -5.6590   25.8630   39.9530 O   0  0  0  0  0  0  0  0  0  0  0  0
   -7.2340   25.4720   41.7420 C   0  0  2  0  0  0  0  0  0  0  0  0
   -6.7480   24.0380   41.9630 C   0  0  0  0  0  0  0  0  0  0  0  0
   -7.5310   22.9680   41.2040 C   0  0  0  0  0  0  0  0  0  0  0  0
   -9.0270   23.0850   41.4300 C   0  0  0  0  0  0  0  0  0  0  0  0
   -9.4920   24.4850   41.1390 C   0  0  0  0  0  0  0  0  0  0  0  0
   -8.6850   25.3890   41.9850 N   0  0  0  0  0  0  0  0  0  0  0  0
   -9.2870   26.2230   42.8520 C   0  0  0  0  0  0  0  0  0  0  0  0
   -8.6530   27.0660   43.4840 O   0  0  0  0  0  0  0  0  0  0  0  0
  -10.6450   26.3090   43.1200 C   0  0  0  0  0  0  0  0  0  0  0  0
  -11.0260   25.6070   44.0550 O   0  0  0  0  0  0  0  0  0  0  0  0
  -11.6470   27.1890   42.3610 C   0  0  1  0  0  0  0  0  0  0  0  0
  -11.7490   26.6750   41.0290 O   0  0  0  0  0  0  0  0  0  0  0  0
  -12.8150   27.1950   43.2060 O   0  0  0  0  0  0  0  0  0  0  0  0
  -11.1020   28.6230   42.1770 C   0  0  1  0  0  0  0  0  0  0  0  0
  -12.1020   29.4530   41.3620 C   0  0  0  0  0  0  0  0  0  0  0  0
  -12.6610   28.7550   40.1170 C   0  0  0  0  0  0  0  0  0  0  0  0
  -12.7440   27.2250   40.1970 C   0  0  1  0  0  0  0  0  0  0  0  0
  -12.4760   26.5580   38.8440 C   0  0  0  0  0  0  0  0  0  0  0  0
  -13.4910   26.6880   37.7000 C   0  0  2  0  0  0  0  0  0  0  0  0
  -14.7640   26.2880   38.0700 O   0  0  0  0  0  0  0  0  0  0  0  0
  -13.0200   25.7940   36.5530 C   0  0  0  0  0  0  0  0  0  0  0  0
  -12.7020   26.3440   35.4000 C   0  0  0  0  0  0  0  0  0  0  0  0
  -12.1830   25.6940   34.1650 C   0  0  0  0  0  0  0  0  0  0  0  0
  -12.2640   26.3510   33.0030 C   0  0  0  0  0  0  0  0  0  0  0  0
  -11.7190   25.8290   31.7600 C   0  0  0  0  0  0  0  0  0  0  0  0
  -10.9670   26.4720   30.8900 C   0  0  0  0  0  0  0  0  0  0  0  0
  -10.5270   25.6960   29.6710 C   0  0  2  0  0  0  0  0  0  0  0  0
   -9.0090   25.7600   29.5460 C   0  0  0  0  0  0  0  0  0  0  0  0
   -8.2170   25.3540   30.7830 C   0  0  2  0  0  0  0  0  0  0  0  0
   -6.8530   26.0230   30.7510 C   0  0  0  0  0  0  0  0  0  0  0  0
   -5.9130   25.4750   30.1850 O   0  0  0  0  0  0  0  0  0  0  0  0
   -6.6840   27.4140   31.3560 C   0  0  2  0  0  0  0  0  0  0  0  0
   -5.5140   27.8840   30.7890 O   0  0  0  0  0  0  0  0  0  0  0  0
   -6.4260   27.3350   32.8580 C   0  0  2  0  0  0  0  0  0  0  0  0
   -5.3940   26.3690   33.0970 O   0  0  0  0  0  0  0  0  0  0  0  0
   -7.6570   26.9730   33.7030 C   0  0  0  0  0  0  0  0  0  0  0  0
   -7.8140   25.8040   34.2810 C   0  0  0  0  0  0  0  0  0  0  0  0
   -8.9140   25.3530   35.1710 C   0  0  2  0  0  0  0  0  0  0  0  0
   -8.5600   25.5570   36.6440 C   0  0  0  0  0  0  0  0  0  0  0  0
   -8.2350   24.5910   37.3340 O   0  0  0  0  0  0  0  0  0  0  0  0
   -8.6390   26.9610   37.2620 C   0  0  0  0  0  0  0  0  0  0  0  0
   -7.4550   27.2730   38.2050 C   0  0  1  0  0  0  0  0  0  0  0  0
   -7.3530   28.8080   38.5120 C   0  0  1  0  0  0  0  0  0  0  0  0
   -6.6180   29.5420   37.3930 C   0  0  0  0  0  0  0  0  0  0  0  0
   -5.2420   29.0570   36.9260 C   0  0  1  0  0  0  0  0  0  0  0  0
   -4.8390   29.8360   35.6670 C   0  0  0  0  0  0  0  0  0  0  0  0
   -3.4880   29.5080   35.0150 C   0  0  1  0  0  0  0  0  0  0  0  0
   -3.1170   30.5270   34.1260 O   0  0  0  0  0  0  0  0  0  0  0  0
   -2.3540   29.4910   36.0720 C   0  0  2  0  0  0  0  0  0  0  0  0
   -1.1670   28.9200   35.5070 O   0  0  0  0  0  0  0  0  0  0  0  0
   -2.7660   28.6820   37.3090 C   0  0  0  0  0  0  0  0  0  0  0  0
   -4.0780   29.1300   37.9140 C   0  0  0  0  0  0  0  0  0  0  0  0
  -10.8560   29.2870   43.5270 C   0  0  0  0  0  0  0  0  0  0  0  0
  -12.8820   24.3040   36.8170 C   0  0  0  0  0  0  0  0  0  0  0  0
  -11.1660   26.3030   28.4590 C   0  0  0  0  0  0  0  0  0  0  0  0
   -8.0660   23.8360   30.8250 C   0  0  0  0  0  0  0  0  0  0  0  0
   -8.6630   28.0830   33.8060 C   0  0  0  0  0  0  0  0  0  0  0  0
   -9.1090   23.8700   34.8640 C   0  0  0  0  0  0  0  0  0  0  0  0
   -8.7360   29.4250   38.6570 C   0  0  0  0  0  0  0  0  0  0  0  0
  -15.8190   26.9460   37.4570 C   0  0  0  0  0  0  0  0  0  0  0  0
   -5.7110   28.9190   29.9030 C   0  0  0  0  0  0  0  0  0  0  0  0
   -4.0020   31.0140   33.1400 C   0  0  0  0  0  0  0  0  0  0  0  0
   -6.7210   26.0850   42.4840 H   0  0  0  0  0  0  0  0  0  0  0  0
   -6.8450   23.8310   43.0280 H   0  0  0  0  0  0  0  0  0  0  0  0
   -5.6840   23.9440   41.7430 H   0  0  0  0  0  0  0  0  0  0  0  0
   -7.1870   21.9730   41.4650 H   0  0  0  0  0  0  0  0  0  0  0  0
   -7.3320   23.0730   40.1380 H   0  0  0  0  0  0  0  0  0  0  0  0
   -9.2640   22.8230   42.4630 H   0  0  0  0  0  0  0  0  0  0  0  0
   -9.5610   22.3720   40.8020 H   0  0  0  0  0  0  0  0  0  0  0  0
  -10.5680   24.5100   41.3000 H   0  0  0  0  0  0  0  0  0  0  0  0
   -9.3470   24.7220   40.0850 H   0  0  0  0  0  0  0  0  0  0  0  0
  -13.0870   26.2890   43.3110 H   0  0  0  0  0  0  0  0  0  0  0  0
  -10.1720   28.5760   41.6120 H   0  0  0  0  0  0  0  0  0  0  0  0
  -11.6730   30.4190   41.0930 H   0  0  0  0  0  0  0  0  0  0  0  0
  -12.9610   29.6730   41.9870 H   0  0  0  0  0  0  0  0  0  0  0  0
  -11.9710   29.0040   39.3110 H   0  0  0  0  0  0  0  0  0  0  0  0
  -13.6190   29.1820   39.8200 H   0  0  0  0  0  0  0  0  0  0  0  0
  -13.7170   26.9240   40.5870 H   0  0  0  0  0  0  0  0  0  0  0  0
  -12.3620   25.4990   39.0730 H   0  0  0  0  0  0  0  0  0  0  0  0
  -11.5030   26.8790   38.4840 H   0  0  0  0  0  0  0  0  0  0  0  0
  -13.5060   27.7380   37.3980 H   0  0  0  0  0  0  0  0  0  0  0  0
  -12.8260   27.4150   35.3310 H   0  0  0  0  0  0  0  0  0  0  0  0
  -11.7320   24.7140   34.2020 H   0  0  0  0  0  0  0  0  0  0  0  0
  -12.7030   27.3370   32.9900 H   0  0  0  0  0  0  0  0  0  0  0  0
  -12.2360   25.0160   31.3540 H   0  0  0  0  0  0  0  0  0  0  0  0
  -10.5230   27.4290   31.1050 H   0  0  0  0  0  0  0  0  0  0  0  0
  -10.8260   24.6480   29.7330 H   0  0  0  0  0  0  0  0  0  0  0  0
   -8.7530   26.7870   29.2750 H   0  0  0  0  0  0  0  0  0  0  0  0
   -8.6890   25.1620   28.6910 H   0  0  0  0  0  0  0  0  0  0  0  0
   -8.7250   25.6850   31.6850 H   0  0  0  0  0  0  0  0  0  0  0  0
   -7.5430   28.0370   31.1390 H   0  0  0  0  0  0  0  0  0  0  0  0
   -6.0520   28.2970   33.2060 H   0  0  0  0  0  0  0  0  0  0  0  0
   -5.2640   26.2820   34.0310 H   0  0  0  0  0  0  0  0  0  0  0  0
   -7.0480   25.0520   34.1570 H   0  0  0  0  0  0  0  0  0  0  0  0
   -9.8260   25.8990   34.9640 H   0  0  0  0  0  0  0  0  0  0  0  0
   -9.5860   27.0670   37.7810 H   0  0  0  0  0  0  0  0  0  0  0  0
   -8.6440   27.6730   36.4400 H   0  0  0  0  0  0  0  0  0  0  0  0
   -6.5240   26.8570   37.8250 H   0  0  0  0  0  0  0  0  0  0  0  0
   -6.7660   28.9530   39.4160 H   0  0  0  0  0  0  0  0  0  0  0  0
   -6.5350   30.5950   37.6690 H   0  0  0  0  0  0  0  0  0  0  0  0
   -7.2710   29.5190   36.5210 H   0  0  0  0  0  0  0  0  0  0  0  0
   -5.3320   28.0200   36.6060 H   0  0  0  0  0  0  0  0  0  0  0  0
   -4.8290   30.8950   35.9320 H   0  0  0  0  0  0  0  0  0  0  0  0
   -5.6270   29.7320   34.9220 H   0  0  0  0  0  0  0  0  0  0  0  0
   -3.5540   28.5500   34.4960 H   0  0  0  0  0  0  0  0  0  0  0  0
   -2.1300   30.5110   36.3870 H   0  0  0  0  0  0  0  0  0  0  0  0
   -1.3900   28.0870   35.1050 H   0  0  0  0  0  0  0  0  0  0  0  0
   -1.9780   28.7260   38.0610 H   0  0  0  0  0  0  0  0  0  0  0  0
   -2.8590   27.6370   37.0170 H   0  0  0  0  0  0  0  0  0  0  0  0
   -4.3040   28.5050   38.7780 H   0  0  0  0  0  0  0  0  0  0  0  0
   -3.9770   30.1480   38.2920 H   0  0  0  0  0  0  0  0  0  0  0  0
  -10.6070   30.3390   43.3820 H   0  0  0  0  0  0  0  0  0  0  0  0
  -11.7200   29.2570   44.1770 H   0  0  0  0  0  0  0  0  0  0  0  0
  -10.0360   28.8740   44.1030 H   0  0  0  0  0  0  0  0  0  0  0  0
  -12.8580   23.7210   35.8970 H   0  0  0  0  0  0  0  0  0  0  0  0
  -11.9630   24.0980   37.3650 H   0  0  0  0  0  0  0  0  0  0  0  0
  -13.7250   23.9410   37.4050 H   0  0  0  0  0  0  0  0  0  0  0  0
  -10.6890   25.9650   27.5450 H   0  0  0  0  0  0  0  0  0  0  0  0
  -12.2280   26.0600   28.4070 H   0  0  0  0  0  0  0  0  0  0  0  0
  -11.0730   27.3860   28.4760 H   0  0  0  0  0  0  0  0  0  0  0  0
   -7.6110   23.5070   31.7600 H   0  0  0  0  0  0  0  0  0  0  0  0
   -9.0390   23.3610   30.7460 H   0  0  0  0  0  0  0  0  0  0  0  0
   -7.4640   23.4480   30.0020 H   0  0  0  0  0  0  0  0  0  0  0  0
   -9.5450   27.8440   34.3950 H   0  0  0  0  0  0  0  0  0  0  0  0
   -8.1980   28.9600   34.2560 H   0  0  0  0  0  0  0  0  0  0  0  0
   -9.0150   28.3680   32.8160 H   0  0  0  0  0  0  0  0  0  0  0  0
   -9.9250   23.4500   35.4520 H   0  0  0  0  0  0  0  0  0  0  0  0
   -9.3690   23.7240   33.8150 H   0  0  0  0  0  0  0  0  0  0  0  0
   -8.2170   23.2730   35.0630 H   0  0  0  0  0  0  0  0  0  0  0  0
   -8.6620   30.4800   38.9220 H   0  0  0  0  0  0  0  0  0  0  0  0
   -9.3250   29.3410   37.7520 H   0  0  0  0  0  0  0  0  0  0  0  0
   -9.2980   28.9390   39.4540 H   0  0  0  0  0  0  0  0  0  0  0  0
  -16.7570   26.5030   37.7900 H   0  0  0  0  0  0  0  0  0  0  0  0
  -15.8290   28.0070   37.7090 H   0  0  0  0  0  0  0  0  0  0  0  0
  -15.7580   26.8400   36.3760 H   0  0  0  0  0  0  0  0  0  0  0  0
   -4.7550   29.2230   29.4760 H   0  0  0  0  0  0  0  0  0  0  0  0
   -6.3670   28.6250   29.0820 H   0  0  0  0  0  0  0  0  0  0  0  0
   -6.1440   29.7850   30.4050 H   0  0  0  0  0  0  0  0  0  0  0  0
   -3.4760   31.7100   32.4870 H   0  0  0  0  0  0  0  0  0  0  0  0
   -4.3830   30.1970   32.5260 H   0  0  0  0  0  0  0  0  0  0  0  0
   -4.8470   31.5470   33.5760 H   0  0  0  0  0  0  0  0  0  0  0  0
  1  2  1  0  0  0  0
  1  3  2  0  0  0  0
  1  4  1  0  0  0  0
  2 45  1  0  0  0  0
  4  5  1  0  0  0  0
  4  9  1  0  0  0  0
  4 66  1  1  0  0  0
  5  6  1  0  0  0  0
  5 67  1  0  0  0  0
  5 68  1  0  0  0  0
  6  7  1  0  0  0  0
  6 69  1  0  0  0  0
  6 70  1  0  0  0  0
  7  8  1  0  0  0  0
  7 71  1  0  0  0  0
  7 72  1  0  0  0  0
  8  9  1  0  0  0  0
  8 73  1  0  0  0  0
  8 74  1  0  0  0  0
  9 10  1  0  0  0  0
 10 11  2  0  0  0  0
 10 12  1  0  0  0  0
 12 13  2  0  0  0  0
 12 14  1  0  0  0  0
 14 15  1  0  0  0  0
 14 16  1  1  0  0  0
 14 17  1  0  0  0  0
 15 20  1  0  0  0  0
 16 75  1  0  0  0  0
 17 18  1  0  0  0  0
 17 56  1  0  0  0  0
 17 76  1  6  0  0  0
 18 19  1  0  0  0  0
 18 77  1  0  0  0  0
 18 78  1  0  0  0  0
 19 20  1  0  0  0  0
 19 79  1  0  0  0  0
 19 80  1  0  0  0  0
 20 21  1  0  0  0  0
 20 81  1  1  0  0  0
 21 22  1  0  0  0  0
 21 82  1  0  0  0  0
 21 83  1  0  0  0  0
 22 23  1  0  0  0  0
 22 24  1  0  0  0  0
 22 84  1  6  0  0  0
 23 63  1  0  0  0  0
 24 25  2  0  0  0  0
 24 57  1  0  0  0  0
 25 26  1  0  0  0  0
 25 85  1  0  0  0  0
 26 27  2  0  0  0  0
 26 86  1  0  0  0  0
 27 28  1  0  0  0  0
 27 87  1  0  0  0  0
 28 29  2  0  0  0  0
 28 88  1  0  0  0  0
 29 30  1  0  0  0  0
 29 89  1  0  0  0  0
 30 31  1  0  0  0  0
 30 58  1  0  0  0  0
 30 90  1  1  0  0  0
 31 32  1  0  0  0  0
 31 91  1  0  0  0  0
 31 92  1  0  0  0  0
 32 33  1  0  0  0  0
 32 59  1  0  0  0  0
 32 93  1  1  0  0  0
 33 34  2  0  0  0  0
 33 35  1  0  0  0  0
 35 36  1  0  0  0  0
 35 37  1  0  0  0  0
 35 94  1  6  0  0  0
 36 64  1  0  0  0  0
 37 38  1  0  0  0  0
 37 39  1  0  0  0  0
 37 95  1  1  0  0  0
 38 96  1  0  0  0  0
 39 40  2  0  0  0  0
 39 60  1  0  0  0  0
 40 41  1  0  0  0  0
 40 97  1  0  0  0  0
 41 42  1  0  0  0  0
 41 61  1  0  0  0  0
 41 98  1  6  0  0  0
 42 43  2  0  0  0  0
 42 44  1  0  0  0  0
 44 45  1  0  0  0  0
 44 99  1  0  0  0  0
 44100  1  0  0  0  0
 45 46  1  0  0  0  0
 45101  1  6  0  0  0
 46 47  1  0  0  0  0
 46 62  1  0  0  0  0
 46102  1  1  0  0  0
 47 48  1  0  0  0  0
 47103  1  0  0  0  0
 47104  1  0  0  0  0
 48 49  1  0  0  0  0
 48 55  1  0  0  0  0
 48105  1  6  0  0  0
 49 50  1  0  0  0  0
 49106  1  0  0  0  0
 49107  1  0  0  0  0
 50 51  1  0  0  0  0
 50 52  1  0  0  0  0
 50108  1  6  0  0  0
 51 65  1  0  0  0  0
 52 53  1  0  0  0  0
 52 54  1  0  0  0  0
 52109  1  1  0  0  0
 53110  1  0  0  0  0
 54 55  1  0  0  0  0
 54111  1  0  0  0  0
 54112  1  0  0  0  0
 55113  1  0  0  0  0
 55114  1  0  0  0  0
 56115  1  0  0  0  0
 56116  1  0  0  0  0
 56117  1  0  0  0  0
 57118  1  0  0  0  0
 57119  1  0  0  0  0
 57120  1  0  0  0  0
 58121  1  0  0  0  0
 58122  1  0  0  0  0
 58123  1  0  0  0  0
 59124  1  0  0  0  0
 59125  1  0  0  0  0
 59126  1  0  0  0  0
 60127  1  0  0  0  0
 60128  1  0  0  0  0
 60129  1  0  0  0  0
 61130  1  0  0  0  0
 61131  1  0  0  0  0
 61132  1  0  0  0  0
 62133  1  0  0  0  0
 62134  1  0  0  0  0
 62135  1  0  0  0  0
 63136  1  0  0  0  0
 63137  1  0  0  0  0
 63138  1  0  0  0  0
 64139  1  0  0  0  0
 64140  1  0  0  0  0
 64141  1  0  0  0  0
 65142  1  0  0  0  0
 65143  1  0  0  0  0
 65144  1  0  0  0  0
M  END
>  <COMPND>
    title: molecule 1

$$$$
